* Spice description of mul4b_cougar
* Spice driver version -1209393500
* Date ( dd/mm/yyyy hh:mm:ss ): 28/10/2020 at 15:21:13

* INTERF vdd vss x[0] x[1] x[2] x[3] y[0] y[1] y[2] y[3] z[0] z[1] z[2] z[3] 
* INTERF z[4] z[5] z[6] z[7] 


.subckt mul4b_cougar 622 578 573 595 473 528 510 604 614 566 579 456 368 512 377 166 98 24 
* NET 10 = not_aux32
* NET 11 = na2_x1_15_sig
* NET 13 = on12_x1_sig
* NET 17 = na2_x1_14_sig
* NET 19 = na2_x1_12_sig
* NET 22 = na4_x1_sig
* NET 24 = z[7]
* NET 28 = a2_x2_8_sig
* NET 40 = mbk_buf_not_aux21
* NET 44 = na2_x1_11_sig
* NET 45 = o2_x2_sig
* NET 51 = aux39
* NET 53 = nao22_x1_7_sig
* NET 55 = na3_x1_9_sig
* NET 56 = an12_x1_sig
* NET 59 = na3_x1_8_sig
* NET 60 = na3_x1_7_sig
* NET 64 = na2_x1_10_sig
* NET 65 = nao22_x1_8_sig
* NET 67 = ao22_x2_8_sig
* NET 70 = oa2a22_x2_3_sig
* NET 71 = not_aux47
* NET 75 = aux21
* NET 77 = mbk_buf_aux21
* NET 79 = na2_x1_13_sig
* NET 80 = not_aux21
* NET 98 = z[6]
* NET 101 = oa2a2a23_x2_sig
* NET 103 = ao22_x2_6_sig
* NET 107 = aux45
* NET 108 = a3_x2_5_sig
* NET 114 = ao22_x2_7_sig
* NET 118 = a2_x2_7_sig
* NET 126 = nxr2_x1_3_sig
* NET 128 = na2_x1_9_sig
* NET 138 = aux43
* NET 141 = not_aux31
* NET 144 = na2_x1_6_sig
* NET 150 = nxr2_x1_2_sig
* NET 152 = aux0
* NET 155 = not_aux28
* NET 156 = ao22_x2_5_sig
* NET 159 = aux30
* NET 160 = noa22_x1_5_sig
* NET 164 = aux46
* NET 166 = z[5]
* NET 168 = oa2ao222_x2_3_sig
* NET 174 = no2_x1_6_sig
* NET 175 = inv_x2_7_sig
* NET 176 = aux32
* NET 180 = oa2ao222_x2_4_sig
* NET 181 = mx3_x2_3_sig
* NET 189 = nao2o22_x1_sig
* NET 192 = not_aux15
* NET 195 = a2_x2_5_sig
* NET 196 = not_aux33
* NET 219 = oa22_x2_3_sig
* NET 223 = na2_x1_8_sig
* NET 224 = aux2
* NET 225 = ao22_x2_4_sig
* NET 226 = noa22_x1_7_sig
* NET 230 = oa2ao222_x2_2_sig
* NET 231 = a2_x2_4_sig
* NET 235 = inv_x2_5_sig
* NET 236 = not_aux44
* NET 239 = mx3_x2_4_sig
* NET 244 = xr2_x1_8_sig
* NET 247 = inv_x2_6_sig
* NET 251 = not_aux20
* NET 252 = aux12
* NET 255 = aux27
* NET 261 = a3_x2_6_sig
* NET 262 = not_y[0]
* NET 265 = na3_x1_10_sig
* NET 270 = xr2_x1_sig
* NET 275 = no3_x1_sig
* NET 280 = not_aux18
* NET 286 = inv_x2_4_sig
* NET 290 = na2_x1_3_sig
* NET 293 = aux16
* NET 296 = not_aux38
* NET 299 = na2_x1_sig
* NET 308 = not_aux2
* NET 309 = aux1
* NET 315 = a3_x2_4_sig
* NET 319 = na3_x1_4_sig
* NET 320 = oa22_x2_2_sig
* NET 321 = na2_x1_4_sig
* NET 331 = xr2_x1_2_sig
* NET 334 = not_aux1
* NET 336 = noa22_x1_sig
* NET 340 = not_y[3]
* NET 341 = o3_x2_3_sig
* NET 343 = na3_x1_6_sig
* NET 344 = noa22_x1_6_sig
* NET 345 = na2_x1_7_sig
* NET 347 = aux17
* NET 349 = not_y[2]
* NET 352 = o3_x2_2_sig
* NET 353 = noa22_x1_4_sig
* NET 355 = not_aux13
* NET 361 = aux10
* NET 363 = mbk_buf_aux10
* NET 364 = na3_x1_sig
* NET 366 = not_aux22
* NET 368 = z[2]
* NET 371 = not_aux40
* NET 377 = z[4]
* NET 385 = aux41
* NET 390 = oa22_x2_sig
* NET 399 = not_aux0
* NET 402 = a2_x2_sig
* NET 407 = aux40
* NET 410 = not_aux3
* NET 411 = mbk_buf_not_aux40
* NET 412 = na3_x1_3_sig
* NET 415 = oa2a22_x2_2_sig
* NET 420 = mx3_x2_sig
* NET 421 = oa2ao222_x2_sig
* NET 431 = ao22_x2_3_sig
* NET 432 = no2_x1_2_sig
* NET 436 = a2_x2_2_sig
* NET 439 = xr2_x1_6_sig
* NET 448 = not_aux10
* NET 452 = na2_x1_2_sig
* NET 453 = mbk_buf_not_aux22
* NET 455 = noa22_x1_2_sig
* NET 456 = z[1]
* NET 458 = aux42
* NET 460 = a2_x2_3_sig
* NET 461 = not_aux42
* NET 464 = nao22_x1_5_sig
* NET 465 = no2_x1_4_sig
* NET 467 = nao22_x1_6_sig
* NET 468 = noa22_x1_3_sig
* NET 469 = a3_x2_3_sig
* NET 470 = na3_x1_5_sig
* NET 472 = not_x[3]
* NET 473 = x[2]
* NET 477 = not_aux24
* NET 478 = nao22_x1_4_sig
* NET 480 = mbk_buf_not_aux25
* NET 482 = not_aux23
* NET 483 = mx3_x2_2_sig
* NET 485 = inv_x2_2_sig
* NET 492 = not_aux25
* NET 493 = inv_x2_3_sig
* NET 510 = y[0]
* NET 512 = z[3]
* NET 520 = not_aux12
* NET 521 = no2_x1_3_sig
* NET 523 = xr2_x1_5_sig
* NET 528 = x[3]
* NET 530 = xr2_x1_3_sig
* NET 534 = oa2a22_x2_sig
* NET 541 = a3_x2_2_sig
* NET 545 = not_aux6
* NET 548 = aux11
* NET 549 = xr2_x1_4_sig
* NET 559 = xr2_x1_7_sig
* NET 564 = aux4
* NET 566 = y[3]
* NET 573 = x[0]
* NET 574 = no2_x1_sig
* NET 577 = not_x[0]
* NET 578 = vss
* NET 579 = z[0]
* NET 582 = na2_x1_5_sig
* NET 583 = not_aux5
* NET 584 = nao22_x1_sig
* NET 586 = not_x[2]
* NET 587 = inv_x2_sig
* NET 589 = a3_x2_sig
* NET 590 = aux7
* NET 592 = nao22_x1_3_sig
* NET 593 = nao22_x1_2_sig
* NET 594 = na3_x1_2_sig
* NET 595 = x[1]
* NET 599 = o3_x2_sig
* NET 600 = ao22_x2_2_sig
* NET 604 = y[1]
* NET 605 = not_aux8
* NET 606 = not_aux9
* NET 608 = ao22_x2_sig
* NET 611 = not_x[1]
* NET 612 = a2_x2_6_sig
* NET 614 = y[2]
* NET 616 = xr2_x1_9_sig
* NET 619 = nxr2_x1_sig
* NET 620 = not_y[1]
* NET 621 = not_aux4
* NET 622 = vdd
* NET 623 = no2_x1_5_sig
Mtr_01208 615 614 622 622 tp L=1U W=10U AS=20P AD=20P PS=24U PD=24U 
Mtr_01207 622 623 618 622 tp L=1U W=10U AS=20P AD=20P PS=24U PD=24U 
Mtr_01206 616 615 617 622 tp L=1U W=20U AS=40P AD=40P PS=44U PD=44U 
Mtr_01205 617 623 622 622 tp L=1U W=20U AS=40P AD=40P PS=44U PD=44U 
Mtr_01204 617 618 616 622 tp L=1U W=20U AS=40P AD=40P PS=44U PD=44U 
Mtr_01203 622 614 617 622 tp L=1U W=20U AS=40P AD=40P PS=44U PD=44U 
Mtr_01202 624 621 623 622 tp L=1U W=20U AS=40P AD=40P PS=44U PD=44U 
Mtr_01201 622 620 624 622 tp L=1U W=20U AS=40P AD=40P PS=44U PD=44U 
Mtr_01200 612 613 622 622 tp L=1U W=20U AS=40P AD=40P PS=44U PD=44U 
Mtr_01199 622 611 613 622 tp L=1U W=10U AS=20P AD=20P PS=24U PD=24U 
Mtr_01198 613 616 622 622 tp L=1U W=10U AS=20P AD=20P PS=24U PD=24U 
Mtr_01197 622 604 598 622 tp L=1U W=15U AS=30P AD=30P PS=34U PD=34U 
Mtr_01196 598 595 596 622 tp L=1U W=15U AS=30P AD=30P PS=34U PD=34U 
Mtr_01195 596 621 597 622 tp L=1U W=15U AS=30P AD=30P PS=34U PD=34U 
Mtr_01194 599 597 622 622 tp L=1U W=20U AS=40P AD=40P PS=44U PD=44U 
Mtr_01193 622 609 608 622 tp L=1U W=20U AS=40P AD=40P PS=44U PD=44U 
Mtr_01192 609 606 622 622 tp L=1U W=10U AS=20P AD=20P PS=24U PD=24U 
Mtr_01191 622 619 610 622 tp L=1U W=10U AS=20P AD=20P PS=24U PD=24U 
Mtr_01190 610 620 609 622 tp L=1U W=10U AS=20P AD=20P PS=24U PD=24U 
Mtr_01189 581 621 580 622 tp L=1U W=15U AS=30P AD=30P PS=34U PD=34U 
Mtr_01188 622 595 581 622 tp L=1U W=15U AS=30P AD=30P PS=34U PD=34U 
Mtr_01187 583 580 622 622 tp L=1U W=20U AS=40P AD=40P PS=44U PD=44U 
Mtr_01186 603 605 607 622 tp L=1U W=15U AS=30P AD=30P PS=34U PD=34U 
Mtr_01185 622 604 603 622 tp L=1U W=15U AS=30P AD=30P PS=34U PD=34U 
Mtr_01184 606 607 622 622 tp L=1U W=20U AS=40P AD=40P PS=44U PD=44U 
Mtr_01183 622 601 600 622 tp L=1U W=20U AS=40P AD=40P PS=44U PD=44U 
Mtr_01182 601 599 622 622 tp L=1U W=10U AS=20P AD=20P PS=24U PD=24U 
Mtr_01181 622 606 602 622 tp L=1U W=10U AS=20P AD=20P PS=24U PD=24U 
Mtr_01180 602 611 601 622 tp L=1U W=10U AS=20P AD=20P PS=24U PD=24U 
Mtr_01179 622 586 593 622 tp L=1U W=20U AS=40P AD=40P PS=44U PD=44U 
Mtr_01178 588 587 622 622 tp L=1U W=20U AS=40P AD=40P PS=44U PD=44U 
Mtr_01177 593 589 588 622 tp L=1U W=20U AS=40P AD=40P PS=44U PD=44U 
Mtr_01176 622 583 584 622 tp L=1U W=20U AS=40P AD=40P PS=44U PD=44U 
Mtr_01175 585 611 622 622 tp L=1U W=20U AS=40P AD=40P PS=44U PD=44U 
Mtr_01174 584 608 585 622 tp L=1U W=20U AS=40P AD=40P PS=44U PD=44U 
Mtr_01173 622 592 594 622 tp L=1U W=10U AS=20P AD=20P PS=24U PD=24U 
Mtr_01172 594 593 622 622 tp L=1U W=10U AS=20P AD=20P PS=24U PD=24U 
Mtr_01171 594 600 622 622 tp L=1U W=10U AS=20P AD=20P PS=24U PD=24U 
Mtr_01170 622 590 591 622 tp L=1U W=10U AS=20P AD=20P PS=24U PD=24U 
Mtr_01169 589 591 622 622 tp L=1U W=20U AS=40P AD=40P PS=44U PD=44U 
Mtr_01168 622 604 591 622 tp L=1U W=10U AS=20P AD=20P PS=24U PD=24U 
Mtr_01167 591 595 622 622 tp L=1U W=10U AS=20P AD=20P PS=24U PD=24U 
Mtr_01166 620 604 622 622 tp L=1U W=15U AS=30P AD=30P PS=34U PD=34U 
Mtr_01165 587 583 622 622 tp L=1U W=15U AS=30P AD=30P PS=34U PD=34U 
Mtr_01164 582 604 622 622 tp L=1U W=10U AS=20P AD=20P PS=24U PD=24U 
Mtr_01163 622 595 582 622 tp L=1U W=10U AS=20P AD=20P PS=24U PD=24U 
Mtr_01162 564 567 622 622 tp L=1U W=20U AS=40P AD=40P PS=44U PD=44U 
Mtr_01161 622 573 567 622 tp L=1U W=10U AS=20P AD=20P PS=24U PD=24U 
Mtr_01160 567 566 622 622 tp L=1U W=10U AS=20P AD=20P PS=24U PD=24U 
Mtr_01159 622 554 504 622 tp L=1U W=20U AS=40P AD=40P PS=44U PD=44U 
Mtr_01158 504 557 605 622 tp L=1U W=20U AS=40P AD=40P PS=44U PD=44U 
Mtr_01157 504 564 622 622 tp L=1U W=20U AS=40P AD=40P PS=44U PD=44U 
Mtr_01156 605 614 504 622 tp L=1U W=20U AS=40P AD=40P PS=44U PD=44U 
Mtr_01155 622 564 557 622 tp L=1U W=10U AS=20P AD=20P PS=24U PD=24U 
Mtr_01154 554 614 622 622 tp L=1U W=10U AS=20P AD=20P PS=24U PD=24U 
Mtr_01153 621 564 622 622 tp L=1U W=15U AS=30P AD=30P PS=34U PD=34U 
Mtr_01152 577 573 622 622 tp L=1U W=15U AS=30P AD=30P PS=34U PD=34U 
Mtr_01151 622 571 507 622 tp L=1U W=20U AS=40P AD=40P PS=44U PD=44U 
Mtr_01150 507 576 619 622 tp L=1U W=20U AS=40P AD=40P PS=44U PD=44U 
Mtr_01149 507 574 622 622 tp L=1U W=20U AS=40P AD=40P PS=44U PD=44U 
Mtr_01148 619 614 507 622 tp L=1U W=20U AS=40P AD=40P PS=44U PD=44U 
Mtr_01147 622 574 576 622 tp L=1U W=10U AS=20P AD=20P PS=24U PD=24U 
Mtr_01146 571 614 622 622 tp L=1U W=10U AS=20P AD=20P PS=24U PD=24U 
Mtr_01145 558 604 622 622 tp L=1U W=10U AS=20P AD=20P PS=24U PD=24U 
Mtr_01144 622 564 561 622 tp L=1U W=10U AS=20P AD=20P PS=24U PD=24U 
Mtr_01143 559 558 505 622 tp L=1U W=20U AS=40P AD=40P PS=44U PD=44U 
Mtr_01142 505 564 622 622 tp L=1U W=20U AS=40P AD=40P PS=44U PD=44U 
Mtr_01141 505 561 559 622 tp L=1U W=20U AS=40P AD=40P PS=44U PD=44U 
Mtr_01140 622 604 505 622 tp L=1U W=20U AS=40P AD=40P PS=44U PD=44U 
Mtr_01139 590 545 622 622 tp L=1U W=10U AS=20P AD=20P PS=24U PD=24U 
Mtr_01138 622 621 590 622 tp L=1U W=10U AS=20P AD=20P PS=24U PD=24U 
Mtr_01137 506 577 574 622 tp L=1U W=20U AS=40P AD=40P PS=44U PD=44U 
Mtr_01136 622 566 506 622 tp L=1U W=20U AS=40P AD=40P PS=44U PD=44U 
Mtr_01135 498 520 521 622 tp L=1U W=20U AS=40P AD=40P PS=44U PD=44U 
Mtr_01134 622 582 498 622 tp L=1U W=20U AS=40P AD=40P PS=44U PD=44U 
Mtr_01133 501 549 537 622 tp L=1U W=10U AS=20P AD=20P PS=24U PD=24U 
Mtr_01132 501 595 622 622 tp L=1U W=10U AS=20P AD=20P PS=24U PD=24U 
Mtr_01131 622 590 501 622 tp L=1U W=10U AS=20P AD=20P PS=24U PD=24U 
Mtr_01130 537 611 501 622 tp L=1U W=10U AS=20P AD=20P PS=24U PD=24U 
Mtr_01129 534 537 622 622 tp L=1U W=20U AS=40P AD=40P PS=44U PD=44U 
Mtr_01128 547 604 622 622 tp L=1U W=10U AS=20P AD=20P PS=24U PD=24U 
Mtr_01127 622 548 551 622 tp L=1U W=10U AS=20P AD=20P PS=24U PD=24U 
Mtr_01126 549 547 503 622 tp L=1U W=20U AS=40P AD=40P PS=44U PD=44U 
Mtr_01125 503 548 622 622 tp L=1U W=20U AS=40P AD=40P PS=44U PD=44U 
Mtr_01124 503 551 549 622 tp L=1U W=20U AS=40P AD=40P PS=44U PD=44U 
Mtr_01123 622 604 503 622 tp L=1U W=20U AS=40P AD=40P PS=44U PD=44U 
Mtr_01122 622 541 592 622 tp L=1U W=20U AS=40P AD=40P PS=44U PD=44U 
Mtr_01121 502 545 622 622 tp L=1U W=20U AS=40P AD=40P PS=44U PD=44U 
Mtr_01120 592 611 502 622 tp L=1U W=20U AS=40P AD=40P PS=44U PD=44U 
Mtr_01119 579 508 622 622 tp L=1U W=20U AS=40P AD=40P PS=44U PD=44U 
Mtr_01118 622 573 508 622 tp L=1U W=10U AS=20P AD=20P PS=24U PD=24U 
Mtr_01117 508 510 622 622 tp L=1U W=10U AS=20P AD=20P PS=24U PD=24U 
Mtr_01116 522 528 622 622 tp L=1U W=10U AS=20P AD=20P PS=24U PD=24U 
Mtr_01115 622 584 525 622 tp L=1U W=10U AS=20P AD=20P PS=24U PD=24U 
Mtr_01114 523 522 499 622 tp L=1U W=20U AS=40P AD=40P PS=44U PD=44U 
Mtr_01113 499 584 622 622 tp L=1U W=20U AS=40P AD=40P PS=44U PD=44U 
Mtr_01112 499 525 523 622 tp L=1U W=20U AS=40P AD=40P PS=44U PD=44U 
Mtr_01111 622 528 499 622 tp L=1U W=20U AS=40P AD=40P PS=44U PD=44U 
Mtr_01110 497 514 518 622 tp L=1U W=10U AS=20P AD=20P PS=24U PD=24U 
Mtr_01109 622 511 495 622 tp L=1U W=10U AS=20P AD=20P PS=24U PD=24U 
Mtr_01108 494 510 622 622 tp L=1U W=10U AS=20P AD=20P PS=24U PD=24U 
Mtr_01107 518 594 494 622 tp L=1U W=10U AS=20P AD=20P PS=24U PD=24U 
Mtr_01106 495 523 497 622 tp L=1U W=10U AS=20P AD=20P PS=24U PD=24U 
Mtr_01105 496 530 495 622 tp L=1U W=10U AS=20P AD=20P PS=24U PD=24U 
Mtr_01104 518 586 496 622 tp L=1U W=10U AS=20P AD=20P PS=24U PD=24U 
Mtr_01103 512 518 622 622 tp L=1U W=20U AS=40P AD=40P PS=44U PD=44U 
Mtr_01102 514 586 622 622 tp L=1U W=7U AS=14P AD=14P PS=18U PD=18U 
Mtr_01101 622 510 511 622 tp L=1U W=7U AS=14P AD=14P PS=18U PD=18U 
Mtr_01100 532 528 622 622 tp L=1U W=10U AS=20P AD=20P PS=24U PD=24U 
Mtr_01099 622 534 533 622 tp L=1U W=10U AS=20P AD=20P PS=24U PD=24U 
Mtr_01098 530 532 500 622 tp L=1U W=20U AS=40P AD=40P PS=44U PD=44U 
Mtr_01097 500 534 622 622 tp L=1U W=20U AS=40P AD=40P PS=44U PD=44U 
Mtr_01096 500 533 530 622 tp L=1U W=20U AS=40P AD=40P PS=44U PD=44U 
Mtr_01095 622 528 500 622 tp L=1U W=20U AS=40P AD=40P PS=44U PD=44U 
Mtr_01094 472 528 622 622 tp L=1U W=15U AS=30P AD=30P PS=34U PD=34U 
Mtr_01093 490 487 489 622 tp L=1U W=10U AS=20P AD=20P PS=24U PD=24U 
Mtr_01092 622 486 491 622 tp L=1U W=10U AS=20P AD=20P PS=24U PD=24U 
Mtr_01091 484 611 622 622 tp L=1U W=10U AS=20P AD=20P PS=24U PD=24U 
Mtr_01090 489 520 484 622 tp L=1U W=10U AS=20P AD=20P PS=24U PD=24U 
Mtr_01089 491 493 490 622 tp L=1U W=10U AS=20P AD=20P PS=24U PD=24U 
Mtr_01088 488 485 491 622 tp L=1U W=10U AS=20P AD=20P PS=24U PD=24U 
Mtr_01087 489 620 488 622 tp L=1U W=10U AS=20P AD=20P PS=24U PD=24U 
Mtr_01086 483 489 622 622 tp L=1U W=20U AS=40P AD=40P PS=44U PD=44U 
Mtr_01085 487 620 622 622 tp L=1U W=7U AS=14P AD=14P PS=18U PD=18U 
Mtr_01084 622 611 486 622 tp L=1U W=7U AS=14P AD=14P PS=18U PD=18U 
Mtr_01083 480 481 622 622 tp L=1U W=20U AS=40P AD=40P PS=44U PD=44U 
Mtr_01082 622 492 481 622 tp L=1U W=6U AS=12P AD=12P PS=16U PD=16U 
Mtr_01081 622 477 478 622 tp L=1U W=20U AS=40P AD=40P PS=44U PD=44U 
Mtr_01080 479 480 622 622 tp L=1U W=20U AS=40P AD=40P PS=44U PD=44U 
Mtr_01079 478 620 479 622 tp L=1U W=20U AS=40P AD=40P PS=44U PD=44U 
Mtr_01078 493 492 622 622 tp L=1U W=15U AS=30P AD=30P PS=34U PD=34U 
Mtr_01077 622 621 474 622 tp L=1U W=10U AS=20P AD=20P PS=24U PD=24U 
Mtr_01076 541 474 622 622 tp L=1U W=20U AS=40P AD=40P PS=44U PD=44U 
Mtr_01075 622 604 474 622 tp L=1U W=10U AS=20P AD=20P PS=24U PD=24U 
Mtr_01074 474 473 622 622 tp L=1U W=10U AS=20P AD=20P PS=24U PD=24U 
Mtr_01073 475 482 476 622 tp L=1U W=15U AS=30P AD=30P PS=34U PD=34U 
Mtr_01072 622 604 475 622 tp L=1U W=15U AS=30P AD=30P PS=34U PD=34U 
Mtr_01071 477 476 622 622 tp L=1U W=20U AS=40P AD=40P PS=44U PD=44U 
Mtr_01070 485 482 622 622 tp L=1U W=15U AS=30P AD=30P PS=34U PD=34U 
Mtr_01069 482 614 622 622 tp L=1U W=10U AS=20P AD=20P PS=24U PD=24U 
Mtr_01068 622 621 482 622 tp L=1U W=10U AS=20P AD=20P PS=24U PD=24U 
Mtr_01067 622 467 470 622 tp L=1U W=10U AS=20P AD=20P PS=24U PD=24U 
Mtr_01066 470 464 622 622 tp L=1U W=10U AS=20P AD=20P PS=24U PD=24U 
Mtr_01065 470 468 622 622 tp L=1U W=10U AS=20P AD=20P PS=24U PD=24U 
Mtr_01064 622 520 471 622 tp L=1U W=10U AS=20P AD=20P PS=24U PD=24U 
Mtr_01063 469 471 622 622 tp L=1U W=20U AS=40P AD=40P PS=44U PD=44U 
Mtr_01062 622 604 471 622 tp L=1U W=10U AS=20P AD=20P PS=24U PD=24U 
Mtr_01061 471 595 622 622 tp L=1U W=10U AS=20P AD=20P PS=24U PD=24U 
Mtr_01060 622 472 467 622 tp L=1U W=20U AS=40P AD=40P PS=44U PD=44U 
Mtr_01059 466 465 622 622 tp L=1U W=20U AS=40P AD=40P PS=44U PD=44U 
Mtr_01058 467 469 466 622 tp L=1U W=20U AS=40P AD=40P PS=44U PD=44U 
Mtr_01057 622 528 464 622 tp L=1U W=20U AS=40P AD=40P PS=44U PD=44U 
Mtr_01056 463 521 622 622 tp L=1U W=20U AS=40P AD=40P PS=44U PD=44U 
Mtr_01055 464 460 463 622 tp L=1U W=20U AS=40P AD=40P PS=44U PD=44U 
Mtr_01054 460 459 622 622 tp L=1U W=20U AS=40P AD=40P PS=44U PD=44U 
Mtr_01053 622 458 459 622 tp L=1U W=10U AS=20P AD=20P PS=24U PD=24U 
Mtr_01052 459 605 622 622 tp L=1U W=10U AS=20P AD=20P PS=24U PD=24U 
Mtr_01051 461 458 622 622 tp L=1U W=15U AS=30P AD=30P PS=34U PD=34U 
Mtr_01050 457 620 458 622 tp L=1U W=20U AS=40P AD=40P PS=44U PD=44U 
Mtr_01049 622 595 457 622 tp L=1U W=20U AS=40P AD=40P PS=44U PD=44U 
Mtr_01048 462 605 465 622 tp L=1U W=20U AS=40P AD=40P PS=44U PD=44U 
Mtr_01047 622 461 462 622 tp L=1U W=20U AS=40P AD=40P PS=44U PD=44U 
Mtr_01046 622 620 396 622 tp L=1U W=20U AS=40P AD=40P PS=44U PD=44U 
Mtr_01045 455 452 396 622 tp L=1U W=20U AS=40P AD=40P PS=44U PD=44U 
Mtr_01044 396 453 455 622 tp L=1U W=20U AS=40P AD=40P PS=44U PD=44U 
Mtr_01043 436 435 622 622 tp L=1U W=20U AS=40P AD=40P PS=44U PD=44U 
Mtr_01042 622 611 435 622 tp L=1U W=10U AS=20P AD=20P PS=24U PD=24U 
Mtr_01041 435 559 622 622 tp L=1U W=10U AS=20P AD=20P PS=24U PD=24U 
Mtr_01040 392 443 446 622 tp L=1U W=10U AS=20P AD=20P PS=24U PD=24U 
Mtr_01039 622 440 393 622 tp L=1U W=10U AS=20P AD=20P PS=24U PD=24U 
Mtr_01038 391 472 622 622 tp L=1U W=10U AS=20P AD=20P PS=24U PD=24U 
Mtr_01037 446 483 391 622 tp L=1U W=10U AS=20P AD=20P PS=24U PD=24U 
Mtr_01036 393 439 392 622 tp L=1U W=10U AS=20P AD=20P PS=24U PD=24U 
Mtr_01035 394 478 393 622 tp L=1U W=10U AS=20P AD=20P PS=24U PD=24U 
Mtr_01034 446 595 394 622 tp L=1U W=10U AS=20P AD=20P PS=24U PD=24U 
Mtr_01033 420 446 622 622 tp L=1U W=20U AS=40P AD=40P PS=44U PD=44U 
Mtr_01032 443 595 622 622 tp L=1U W=7U AS=14P AD=14P PS=18U PD=18U 
Mtr_01031 622 472 440 622 tp L=1U W=7U AS=14P AD=14P PS=18U PD=18U 
Mtr_01030 452 448 622 622 tp L=1U W=10U AS=20P AD=20P PS=24U PD=24U 
Mtr_01029 622 577 452 622 tp L=1U W=10U AS=20P AD=20P PS=24U PD=24U 
Mtr_01028 622 428 431 622 tp L=1U W=20U AS=40P AD=40P PS=44U PD=44U 
Mtr_01027 428 595 622 622 tp L=1U W=10U AS=20P AD=20P PS=24U PD=24U 
Mtr_01026 622 455 383 622 tp L=1U W=10U AS=20P AD=20P PS=24U PD=24U 
Mtr_01025 383 432 428 622 tp L=1U W=10U AS=20P AD=20P PS=24U PD=24U 
Mtr_01024 421 433 622 622 tp L=1U W=20U AS=40P AD=40P PS=44U PD=44U 
Mtr_01023 388 436 386 622 tp L=1U W=20U AS=40P AD=40P PS=44U PD=44U 
Mtr_01022 388 385 622 622 tp L=1U W=14.5U AS=29P AD=29P PS=33U PD=33U 
Mtr_01021 622 390 388 622 tp L=1U W=14.5U AS=29P AD=29P PS=33U PD=33U 
Mtr_01020 386 431 433 622 tp L=1U W=20U AS=40P AD=40P PS=44U PD=44U 
Mtr_01019 433 528 388 622 tp L=1U W=20U AS=40P AD=40P PS=44U PD=44U 
Mtr_01018 379 419 423 622 tp L=1U W=10U AS=20P AD=20P PS=24U PD=24U 
Mtr_01017 622 414 380 622 tp L=1U W=10U AS=20P AD=20P PS=24U PD=24U 
Mtr_01016 376 510 622 622 tp L=1U W=10U AS=20P AD=20P PS=24U PD=24U 
Mtr_01015 423 415 376 622 tp L=1U W=10U AS=20P AD=20P PS=24U PD=24U 
Mtr_01014 380 421 379 622 tp L=1U W=10U AS=20P AD=20P PS=24U PD=24U 
Mtr_01013 378 420 380 622 tp L=1U W=10U AS=20P AD=20P PS=24U PD=24U 
Mtr_01012 423 586 378 622 tp L=1U W=10U AS=20P AD=20P PS=24U PD=24U 
Mtr_01011 377 423 622 622 tp L=1U W=20U AS=40P AD=40P PS=44U PD=44U 
Mtr_01010 419 586 622 622 tp L=1U W=7U AS=14P AD=14P PS=18U PD=18U 
Mtr_01009 622 510 414 622 tp L=1U W=7U AS=14P AD=14P PS=18U PD=18U 
Mtr_01008 375 470 409 622 tp L=1U W=10U AS=20P AD=20P PS=24U PD=24U 
Mtr_01007 375 586 622 622 tp L=1U W=10U AS=20P AD=20P PS=24U PD=24U 
Mtr_01006 622 412 375 622 tp L=1U W=10U AS=20P AD=20P PS=24U PD=24U 
Mtr_01005 409 473 375 622 tp L=1U W=10U AS=20P AD=20P PS=24U PD=24U 
Mtr_01004 415 409 622 622 tp L=1U W=20U AS=40P AD=40P PS=44U PD=44U 
Mtr_01003 381 611 385 622 tp L=1U W=20U AS=40P AD=40P PS=44U PD=44U 
Mtr_01002 622 528 381 622 tp L=1U W=20U AS=40P AD=40P PS=44U PD=44U 
Mtr_01001 382 577 548 622 tp L=1U W=20U AS=40P AD=40P PS=44U PD=44U 
Mtr_01000 622 448 382 622 tp L=1U W=20U AS=40P AD=40P PS=44U PD=44U 
Mtr_00999 411 406 622 622 tp L=1U W=20U AS=40P AD=40P PS=44U PD=44U 
Mtr_00998 622 371 406 622 tp L=1U W=6U AS=12P AD=12P PS=16U PD=16U 
Mtr_00997 372 411 432 622 tp L=1U W=20U AS=40P AD=40P PS=44U PD=44U 
Mtr_00996 622 410 372 622 tp L=1U W=20U AS=40P AD=40P PS=44U PD=44U 
Mtr_00995 370 448 407 622 tp L=1U W=20U AS=40P AD=40P PS=44U PD=44U 
Mtr_00994 622 604 370 622 tp L=1U W=20U AS=40P AD=40P PS=44U PD=44U 
Mtr_00993 371 407 622 622 tp L=1U W=15U AS=30P AD=30P PS=34U PD=34U 
Mtr_00992 397 399 622 622 tp L=1U W=10U AS=20P AD=20P PS=24U PD=24U 
Mtr_00991 622 402 398 622 tp L=1U W=10U AS=20P AD=20P PS=24U PD=24U 
Mtr_00990 456 397 369 622 tp L=1U W=20U AS=40P AD=40P PS=44U PD=44U 
Mtr_00989 369 402 622 622 tp L=1U W=20U AS=40P AD=40P PS=44U PD=44U 
Mtr_00988 369 398 456 622 tp L=1U W=20U AS=40P AD=40P PS=44U PD=44U 
Mtr_00987 622 399 369 622 tp L=1U W=20U AS=40P AD=40P PS=44U PD=44U 
Mtr_00986 402 401 622 622 tp L=1U W=20U AS=40P AD=40P PS=44U PD=44U 
Mtr_00985 622 595 401 622 tp L=1U W=10U AS=20P AD=20P PS=24U PD=24U 
Mtr_00984 401 510 622 622 tp L=1U W=10U AS=20P AD=20P PS=24U PD=24U 
Mtr_00983 453 367 622 622 tp L=1U W=20U AS=40P AD=40P PS=44U PD=44U 
Mtr_00982 622 366 367 622 tp L=1U W=6U AS=12P AD=12P PS=16U PD=16U 
Mtr_00981 622 361 448 622 tp L=1U W=14U AS=28P AD=28P PS=32U PD=32U 
Mtr_00980 448 361 622 622 tp L=1U W=20U AS=40P AD=40P PS=44U PD=44U 
Mtr_00979 622 545 364 622 tp L=1U W=10U AS=20P AD=20P PS=24U PD=24U 
Mtr_00978 364 363 622 622 tp L=1U W=10U AS=20P AD=20P PS=24U PD=24U 
Mtr_00977 364 620 622 622 tp L=1U W=10U AS=20P AD=20P PS=24U PD=24U 
Mtr_00976 358 566 622 622 tp L=1U W=10U AS=20P AD=20P PS=24U PD=24U 
Mtr_00975 622 614 360 622 tp L=1U W=10U AS=20P AD=20P PS=24U PD=24U 
Mtr_00974 361 358 359 622 tp L=1U W=20U AS=40P AD=40P PS=44U PD=44U 
Mtr_00973 359 614 622 622 tp L=1U W=20U AS=40P AD=40P PS=44U PD=44U 
Mtr_00972 359 360 361 622 tp L=1U W=20U AS=40P AD=40P PS=44U PD=44U 
Mtr_00971 622 566 359 622 tp L=1U W=20U AS=40P AD=40P PS=44U PD=44U 
Mtr_00970 363 362 622 622 tp L=1U W=20U AS=40P AD=40P PS=44U PD=44U 
Mtr_00969 622 361 362 622 tp L=1U W=6U AS=12P AD=12P PS=16U PD=16U 
Mtr_00968 356 548 357 622 tp L=1U W=15U AS=30P AD=30P PS=34U PD=34U 
Mtr_00967 622 520 356 622 tp L=1U W=15U AS=30P AD=30P PS=34U PD=34U 
Mtr_00966 355 357 622 622 tp L=1U W=20U AS=40P AD=40P PS=44U PD=44U 
Mtr_00965 622 611 354 622 tp L=1U W=20U AS=40P AD=40P PS=44U PD=44U 
Mtr_00964 353 352 354 622 tp L=1U W=20U AS=40P AD=40P PS=44U PD=44U 
Mtr_00963 354 477 353 622 tp L=1U W=20U AS=40P AD=40P PS=44U PD=44U 
Mtr_00962 351 349 350 622 tp L=1U W=15U AS=30P AD=30P PS=34U PD=34U 
Mtr_00961 622 573 351 622 tp L=1U W=15U AS=30P AD=30P PS=34U PD=34U 
Mtr_00960 545 350 622 622 tp L=1U W=20U AS=40P AD=40P PS=44U PD=44U 
Mtr_00959 492 365 622 622 tp L=1U W=20U AS=40P AD=40P PS=44U PD=44U 
Mtr_00958 622 545 365 622 tp L=1U W=10U AS=20P AD=20P PS=24U PD=24U 
Mtr_00957 365 366 622 622 tp L=1U W=10U AS=20P AD=20P PS=24U PD=24U 
Mtr_00956 345 595 622 622 tp L=1U W=10U AS=20P AD=20P PS=24U PD=24U 
Mtr_00955 622 347 345 622 tp L=1U W=10U AS=20P AD=20P PS=24U PD=24U 
Mtr_00954 622 341 343 622 tp L=1U W=10U AS=20P AD=20P PS=24U PD=24U 
Mtr_00953 343 345 622 622 tp L=1U W=10U AS=20P AD=20P PS=24U PD=24U 
Mtr_00952 343 411 622 622 tp L=1U W=10U AS=20P AD=20P PS=24U PD=24U 
Mtr_00951 622 371 346 622 tp L=1U W=20U AS=40P AD=40P PS=44U PD=44U 
Mtr_00950 344 577 346 622 tp L=1U W=20U AS=40P AD=40P PS=44U PD=44U 
Mtr_00949 346 349 344 622 tp L=1U W=20U AS=40P AD=40P PS=44U PD=44U 
Mtr_00948 348 349 347 622 tp L=1U W=20U AS=40P AD=40P PS=44U PD=44U 
Mtr_00947 622 604 348 622 tp L=1U W=20U AS=40P AD=40P PS=44U PD=44U 
Mtr_00946 410 337 622 622 tp L=1U W=20U AS=40P AD=40P PS=44U PD=44U 
Mtr_00945 622 349 337 622 tp L=1U W=10U AS=20P AD=20P PS=24U PD=24U 
Mtr_00944 337 573 622 622 tp L=1U W=10U AS=20P AD=20P PS=24U PD=24U 
Mtr_00943 622 461 339 622 tp L=1U W=15U AS=30P AD=30P PS=34U PD=34U 
Mtr_00942 339 410 338 622 tp L=1U W=15U AS=30P AD=30P PS=34U PD=34U 
Mtr_00941 338 340 342 622 tp L=1U W=15U AS=30P AD=30P PS=34U PD=34U 
Mtr_00940 341 342 622 622 tp L=1U W=20U AS=40P AD=40P PS=44U PD=44U 
Mtr_00939 622 410 335 622 tp L=1U W=20U AS=40P AD=40P PS=44U PD=44U 
Mtr_00938 336 577 335 622 tp L=1U W=20U AS=40P AD=40P PS=44U PD=44U 
Mtr_00937 335 334 336 622 tp L=1U W=20U AS=40P AD=40P PS=44U PD=44U 
Mtr_00936 330 473 622 622 tp L=1U W=10U AS=20P AD=20P PS=24U PD=24U 
Mtr_00935 622 336 332 622 tp L=1U W=10U AS=20P AD=20P PS=24U PD=24U 
Mtr_00934 331 330 333 622 tp L=1U W=20U AS=40P AD=40P PS=44U PD=44U 
Mtr_00933 333 336 622 622 tp L=1U W=20U AS=40P AD=40P PS=44U PD=44U 
Mtr_00932 333 332 331 622 tp L=1U W=20U AS=40P AD=40P PS=44U PD=44U 
Mtr_00931 622 473 333 622 tp L=1U W=20U AS=40P AD=40P PS=44U PD=44U 
Mtr_00930 622 328 296 622 tp L=1U W=20U AS=40P AD=40P PS=44U PD=44U 
Mtr_00929 328 364 622 622 tp L=1U W=10U AS=20P AD=20P PS=24U PD=24U 
Mtr_00928 622 520 295 622 tp L=1U W=10U AS=20P AD=20P PS=24U PD=24U 
Mtr_00927 295 299 328 622 tp L=1U W=10U AS=20P AD=20P PS=24U PD=24U 
Mtr_00926 321 595 622 622 tp L=1U W=10U AS=20P AD=20P PS=24U PD=24U 
Mtr_00925 622 293 321 622 tp L=1U W=10U AS=20P AD=20P PS=24U PD=24U 
Mtr_00924 622 325 390 622 tp L=1U W=20U AS=40P AD=40P PS=44U PD=44U 
Mtr_00923 291 293 622 622 tp L=1U W=10U AS=20P AD=20P PS=24U PD=24U 
Mtr_00922 291 290 325 622 tp L=1U W=10U AS=20P AD=20P PS=24U PD=24U 
Mtr_00921 325 604 291 622 tp L=1U W=10U AS=20P AD=20P PS=24U PD=24U 
Mtr_00920 299 604 622 622 tp L=1U W=10U AS=20P AD=20P PS=24U PD=24U 
Mtr_00919 622 614 299 622 tp L=1U W=10U AS=20P AD=20P PS=24U PD=24U 
Mtr_00918 622 355 319 622 tp L=1U W=10U AS=20P AD=20P PS=24U PD=24U 
Mtr_00917 319 385 622 622 tp L=1U W=10U AS=20P AD=20P PS=24U PD=24U 
Mtr_00916 319 604 622 622 tp L=1U W=10U AS=20P AD=20P PS=24U PD=24U 
Mtr_00915 622 319 412 622 tp L=1U W=10U AS=20P AD=20P PS=24U PD=24U 
Mtr_00914 412 320 622 622 tp L=1U W=10U AS=20P AD=20P PS=24U PD=24U 
Mtr_00913 412 321 622 622 tp L=1U W=10U AS=20P AD=20P PS=24U PD=24U 
Mtr_00912 622 620 282 622 tp L=1U W=15U AS=30P AD=30P PS=34U PD=34U 
Mtr_00911 282 448 281 622 tp L=1U W=15U AS=30P AD=30P PS=34U PD=34U 
Mtr_00910 281 308 317 622 tp L=1U W=15U AS=30P AD=30P PS=34U PD=34U 
Mtr_00909 352 317 622 622 tp L=1U W=20U AS=40P AD=40P PS=44U PD=44U 
Mtr_00908 622 322 320 622 tp L=1U W=20U AS=40P AD=40P PS=44U PD=44U 
Mtr_00907 288 286 622 622 tp L=1U W=10U AS=20P AD=20P PS=24U PD=24U 
Mtr_00906 288 355 322 622 tp L=1U W=10U AS=20P AD=20P PS=24U PD=24U 
Mtr_00905 322 595 288 622 tp L=1U W=10U AS=20P AD=20P PS=24U PD=24U 
Mtr_00904 622 595 265 622 tp L=1U W=10U AS=20P AD=20P PS=24U PD=24U 
Mtr_00903 265 586 622 622 tp L=1U W=10U AS=20P AD=20P PS=24U PD=24U 
Mtr_00902 265 573 622 622 tp L=1U W=10U AS=20P AD=20P PS=24U PD=24U 
Mtr_00901 622 611 274 622 tp L=1U W=20U AS=40P AD=40P PS=44U PD=44U 
Mtr_00900 273 448 275 622 tp L=1U W=20U AS=40P AD=40P PS=44U PD=44U 
Mtr_00899 274 347 273 622 tp L=1U W=20U AS=40P AD=40P PS=44U PD=44U 
Mtr_00898 622 315 276 622 tp L=1U W=20U AS=40P AD=40P PS=44U PD=44U 
Mtr_00897 468 347 276 622 tp L=1U W=20U AS=40P AD=40P PS=44U PD=44U 
Mtr_00896 276 611 468 622 tp L=1U W=20U AS=40P AD=40P PS=44U PD=44U 
Mtr_00895 622 620 316 622 tp L=1U W=10U AS=20P AD=20P PS=24U PD=24U 
Mtr_00894 315 316 622 622 tp L=1U W=20U AS=40P AD=40P PS=44U PD=44U 
Mtr_00893 622 280 316 622 tp L=1U W=10U AS=20P AD=20P PS=24U PD=24U 
Mtr_00892 316 595 622 622 tp L=1U W=10U AS=20P AD=20P PS=24U PD=24U 
Mtr_00891 622 265 302 622 tp L=1U W=10U AS=20P AD=20P PS=24U PD=24U 
Mtr_00890 261 302 622 622 tp L=1U W=20U AS=40P AD=40P PS=44U PD=44U 
Mtr_00889 622 262 302 622 tp L=1U W=10U AS=20P AD=20P PS=24U PD=24U 
Mtr_00888 302 334 622 622 tp L=1U W=10U AS=20P AD=20P PS=24U PD=24U 
Mtr_00887 309 312 622 622 tp L=1U W=20U AS=40P AD=40P PS=44U PD=44U 
Mtr_00886 622 595 312 622 tp L=1U W=10U AS=20P AD=20P PS=24U PD=24U 
Mtr_00885 312 604 622 622 tp L=1U W=10U AS=20P AD=20P PS=24U PD=24U 
Mtr_00884 259 331 300 622 tp L=1U W=10U AS=20P AD=20P PS=24U PD=24U 
Mtr_00883 259 262 622 622 tp L=1U W=10U AS=20P AD=20P PS=24U PD=24U 
Mtr_00882 622 270 259 622 tp L=1U W=10U AS=20P AD=20P PS=24U PD=24U 
Mtr_00881 300 510 259 622 tp L=1U W=10U AS=20P AD=20P PS=24U PD=24U 
Mtr_00880 368 300 622 622 tp L=1U W=20U AS=40P AD=40P PS=44U PD=44U 
Mtr_00879 334 309 622 622 tp L=1U W=15U AS=30P AD=30P PS=34U PD=34U 
Mtr_00878 306 308 622 622 tp L=1U W=10U AS=20P AD=20P PS=24U PD=24U 
Mtr_00877 622 309 307 622 tp L=1U W=10U AS=20P AD=20P PS=24U PD=24U 
Mtr_00876 270 306 268 622 tp L=1U W=20U AS=40P AD=40P PS=44U PD=44U 
Mtr_00875 268 309 622 622 tp L=1U W=20U AS=40P AD=40P PS=44U PD=44U 
Mtr_00874 268 307 270 622 tp L=1U W=20U AS=40P AD=40P PS=44U PD=44U 
Mtr_00873 622 308 268 622 tp L=1U W=20U AS=40P AD=40P PS=44U PD=44U 
Mtr_00872 622 621 255 622 tp L=1U W=20U AS=40P AD=40P PS=44U PD=44U 
Mtr_00871 253 573 622 622 tp L=1U W=20U AS=40P AD=40P PS=44U PD=44U 
Mtr_00870 255 448 253 622 tp L=1U W=20U AS=40P AD=40P PS=44U PD=44U 
Mtr_00869 254 604 622 622 tp L=1U W=10U AS=20P AD=20P PS=24U PD=24U 
Mtr_00868 622 255 257 622 tp L=1U W=10U AS=20P AD=20P PS=24U PD=24U 
Mtr_00867 439 254 256 622 tp L=1U W=20U AS=40P AD=40P PS=44U PD=44U 
Mtr_00866 256 255 622 622 tp L=1U W=20U AS=40P AD=40P PS=44U PD=44U 
Mtr_00865 256 257 439 622 tp L=1U W=20U AS=40P AD=40P PS=44U PD=44U 
Mtr_00864 622 604 256 622 tp L=1U W=20U AS=40P AD=40P PS=44U PD=44U 
Mtr_00863 238 604 622 622 tp L=1U W=10U AS=20P AD=20P PS=24U PD=24U 
Mtr_00862 622 520 241 622 tp L=1U W=10U AS=20P AD=20P PS=24U PD=24U 
Mtr_00861 244 238 240 622 tp L=1U W=20U AS=40P AD=40P PS=44U PD=44U 
Mtr_00860 240 520 622 622 tp L=1U W=20U AS=40P AD=40P PS=44U PD=44U 
Mtr_00859 240 241 244 622 tp L=1U W=20U AS=40P AD=40P PS=44U PD=44U 
Mtr_00858 622 604 240 622 tp L=1U W=20U AS=40P AD=40P PS=44U PD=44U 
Mtr_00857 252 566 622 622 tp L=1U W=10U AS=20P AD=20P PS=24U PD=24U 
Mtr_00856 622 577 252 622 tp L=1U W=10U AS=20P AD=20P PS=24U PD=24U 
Mtr_00855 290 251 622 622 tp L=1U W=10U AS=20P AD=20P PS=24U PD=24U 
Mtr_00854 622 252 290 622 tp L=1U W=10U AS=20P AD=20P PS=24U PD=24U 
Mtr_00853 622 227 225 622 tp L=1U W=20U AS=40P AD=40P PS=44U PD=44U 
Mtr_00852 227 595 622 622 tp L=1U W=10U AS=20P AD=20P PS=24U PD=24U 
Mtr_00851 622 344 228 622 tp L=1U W=10U AS=20P AD=20P PS=24U PD=24U 
Mtr_00850 228 226 227 622 tp L=1U W=10U AS=20P AD=20P PS=24U PD=24U 
Mtr_00849 245 242 248 622 tp L=1U W=10U AS=20P AD=20P PS=24U PD=24U 
Mtr_00848 622 243 249 622 tp L=1U W=10U AS=20P AD=20P PS=24U PD=24U 
Mtr_00847 246 611 622 622 tp L=1U W=10U AS=20P AD=20P PS=24U PD=24U 
Mtr_00846 248 244 246 622 tp L=1U W=10U AS=20P AD=20P PS=24U PD=24U 
Mtr_00845 249 255 245 622 tp L=1U W=10U AS=20P AD=20P PS=24U PD=24U 
Mtr_00844 250 247 249 622 tp L=1U W=10U AS=20P AD=20P PS=24U PD=24U 
Mtr_00843 248 620 250 622 tp L=1U W=10U AS=20P AD=20P PS=24U PD=24U 