* Spice description of mul5b_cougar
* Spice driver version -1209295196
* Date ( dd/mm/yyyy hh:mm:ss ):  4/11/2020 at 11:15:31

* INTERF vdd vss x[0] x[1] x[2] x[3] x[4] y[0] y[1] y[2] y[3] y[4] z[0] z[1] 
* INTERF z[2] z[3] z[4] z[5] z[6] z[7] z[8] z[9] 


.subckt mul5b_cougar vdd vss x[0] x[1] x[2] x[3] x[4] y[0] y[1] y[2] y[3] y[4] z[0] z[1] z[2] z[3] z[4] z[5] z[6] z[7] z[8] z[9] 
Mtr_01100 u5.x1 sig3 vdd vdd tp L=1U W=20U AS=40P AD=40P PS=44U PD=44U 
Mtr_01099 vdd y[1] sig3 vdd tp L=1U W=10U AS=20P AD=20P PS=24U PD=24U 
Mtr_01098 sig3 x[0] vdd vdd tp L=1U W=10U AS=20P AD=20P PS=24U PD=24U 
Mtr_01097 cx[5] sig15 vdd vdd tp L=1U W=20U AS=40P AD=40P PS=44U PD=44U 
Mtr_01096 sig12 u5.x1 sig13 vdd tp L=1U W=20U AS=40P AD=40P PS=44U PD=44U 
Mtr_01095 sig12 rtl_map_3 vdd vdd tp L=1U W=14.5U AS=29P AD=29P PS=33U PD=33U 
Mtr_01094 vdd u5.x1 sig12 vdd tp L=1U W=14.5U AS=29P AD=29P PS=33U PD=33U 
Mtr_01093 sig13 rtl_map_3 sig15 vdd tp L=1U W=20U AS=40P AD=40P PS=44U PD=44U 
Mtr_01092 sig15 sx[1] sig12 vdd tp L=1U W=20U AS=40P AD=40P PS=44U PD=44U 
Mtr_01091 sig9 rtl_map_3 vdd vdd tp L=1U W=10U AS=20P AD=20P PS=24U PD=24U 
Mtr_01090 vdd u5.x1 sig8 vdd tp L=1U W=10U AS=20P AD=20P PS=24U PD=24U 
Mtr_01089 u5.y0.xr2_x1_sig sig9 sig10 vdd tp L=1U W=20U AS=40P AD=40P PS=44U PD=44U 
Mtr_01088 sig10 u5.x1 vdd vdd tp L=1U W=20U AS=40P AD=40P PS=44U PD=44U 
Mtr_01087 sig10 sig8 u5.y0.xr2_x1_sig vdd tp L=1U W=20U AS=40P AD=40P PS=44U PD=44U 
Mtr_01086 vdd rtl_map_3 sig10 vdd tp L=1U W=20U AS=40P AD=40P PS=44U PD=44U 
Mtr_01085 sig29 rtl_map_2 vdd vdd tp L=1U W=10U AS=20P AD=20P PS=24U PD=24U 
Mtr_01084 vdd u10.x1 sig26 vdd tp L=1U W=10U AS=20P AD=20P PS=24U PD=24U 
Mtr_01083 u10.y0.xr2_x1_sig sig29 sig27 vdd tp L=1U W=20U AS=40P AD=40P PS=44U PD=44U 
Mtr_01082 sig27 u10.x1 vdd vdd tp L=1U W=20U AS=40P AD=40P PS=44U PD=44U 
Mtr_01081 sig27 sig26 u10.y0.xr2_x1_sig vdd tp L=1U W=20U AS=40P AD=40P PS=44U PD=44U 
Mtr_01080 vdd rtl_map_2 sig27 vdd tp L=1U W=20U AS=40P AD=40P PS=44U PD=44U 
Mtr_01079 u10.x1 sig17 vdd vdd tp L=1U W=20U AS=40P AD=40P PS=44U PD=44U 
Mtr_01078 vdd y[2] sig17 vdd tp L=1U W=10U AS=20P AD=20P PS=24U PD=24U 
Mtr_01077 sig17 x[0] vdd vdd tp L=1U W=10U AS=20P AD=20P PS=24U PD=24U 
Mtr_01076 cx[10] sig22 vdd vdd tp L=1U W=20U AS=40P AD=40P PS=44U PD=44U 
Mtr_01075 sig19 u10.x1 sig21 vdd tp L=1U W=20U AS=40P AD=40P PS=44U PD=44U 
Mtr_01074 sig19 rtl_map_2 vdd vdd tp L=1U W=14.5U AS=29P AD=29P PS=33U PD=33U 
Mtr_01073 vdd u10.x1 sig19 vdd tp L=1U W=14.5U AS=29P AD=29P PS=33U PD=33U 
Mtr_01072 sig21 rtl_map_2 sig22 vdd tp L=1U W=20U AS=40P AD=40P PS=44U PD=44U 
Mtr_01071 sig22 sx[6] sig19 vdd tp L=1U W=20U AS=40P AD=40P PS=44U PD=44U 
Mtr_01070 sig33 sx[1] vdd vdd tp L=1U W=10U AS=20P AD=20P PS=24U PD=24U 
Mtr_01069 vdd u5.y0.xr2_x1_sig sig32 vdd tp L=1U W=10U AS=20P AD=20P PS=24U PD=24U 
Mtr_01068 sx[5] sig33 sig30 vdd tp L=1U W=20U AS=40P AD=40P PS=44U PD=44U 
Mtr_01067 sig30 u5.y0.xr2_x1_sig vdd vdd tp L=1U W=20U AS=40P AD=40P PS=44U PD=44U 
Mtr_01066 sig30 sig32 sx[5] vdd tp L=1U W=20U AS=40P AD=40P PS=44U PD=44U 
Mtr_01065 vdd sx[1] sig30 vdd tp L=1U W=20U AS=40P AD=40P PS=44U PD=44U 
Mtr_01064 z[0] sig37 vdd vdd tp L=1U W=20U AS=40P AD=40P PS=44U PD=44U 
Mtr_01063 vdd sx[0] sig37 vdd tp L=1U W=6U AS=12P AD=12P PS=16U PD=16U 
Mtr_01062 z[1] sig35 vdd vdd tp L=1U W=20U AS=40P AD=40P PS=44U PD=44U 
Mtr_01061 vdd sx[5] sig35 vdd tp L=1U W=6U AS=12P AD=12P PS=16U PD=16U 
Mtr_01060 sig50 cx[2] vdd vdd tp L=1U W=10U AS=20P AD=20P PS=24U PD=24U 
Mtr_01059 vdd u3.x1 sig47 vdd tp L=1U W=10U AS=20P AD=20P PS=24U PD=24U 
Mtr_01058 u3.y0.xr2_x1_sig sig50 sig100 vdd tp L=1U W=20U AS=40P AD=40P PS=44U PD=44U 
Mtr_01057 sig100 u3.x1 vdd vdd tp L=1U W=20U AS=40P AD=40P PS=44U PD=44U 
Mtr_01056 sig100 sig47 u3.y0.xr2_x1_sig vdd tp L=1U W=20U AS=40P AD=40P PS=44U PD=44U 
Mtr_01055 vdd cx[2] sig100 vdd tp L=1U W=20U AS=40P AD=40P PS=44U PD=44U 
Mtr_01054 sig45 rtl_map_5 vdd vdd tp L=1U W=10U AS=20P AD=20P PS=24U PD=24U 
Mtr_01053 vdd u3.y0.xr2_x1_sig sig40 vdd tp L=1U W=10U AS=20P AD=20P PS=24U PD=24U 
Mtr_01052 sx[3] sig45 sig99 vdd tp L=1U W=20U AS=40P AD=40P PS=44U PD=44U 
Mtr_01051 sig99 u3.y0.xr2_x1_sig vdd vdd tp L=1U W=20U AS=40P AD=40P PS=44U PD=44U 
Mtr_01050 sig99 sig40 sx[3] vdd tp L=1U W=20U AS=40P AD=40P PS=44U PD=44U 
Mtr_01049 vdd rtl_map_5 sig99 vdd tp L=1U W=20U AS=40P AD=40P PS=44U PD=44U 
Mtr_01048 cx[6] sig57 vdd vdd tp L=1U W=20U AS=40P AD=40P PS=44U PD=44U 
Mtr_01047 sig101 u6.x1 sig102 vdd tp L=1U W=20U AS=40P AD=40P PS=44U PD=44U 
Mtr_01046 sig101 cx[5] vdd vdd tp L=1U W=14.5U AS=29P AD=29P PS=33U PD=33U 
Mtr_01045 vdd u6.x1 sig101 vdd tp L=1U W=14.5U AS=29P AD=29P PS=33U PD=33U 
Mtr_01044 sig102 cx[5] sig57 vdd tp L=1U W=20U AS=40P AD=40P PS=44U PD=44U 
Mtr_01043 sig57 sx[2] sig101 vdd tp L=1U W=20U AS=40P AD=40P PS=44U PD=44U 
Mtr_01042 sig64 cx[5] vdd vdd tp L=1U W=10U AS=20P AD=20P PS=24U PD=24U 
Mtr_01041 vdd u6.x1 sig61 vdd tp L=1U W=10U AS=20P AD=20P PS=24U PD=24U 
Mtr_01040 u6.y0.xr2_x1_sig sig64 sig103 vdd tp L=1U W=20U AS=40P AD=40P PS=44U PD=44U 
Mtr_01039 sig103 u6.x1 vdd vdd tp L=1U W=20U AS=40P AD=40P PS=44U PD=44U 
Mtr_01038 sig103 sig61 u6.y0.xr2_x1_sig vdd tp L=1U W=20U AS=40P AD=40P PS=44U PD=44U 
Mtr_01037 vdd cx[5] sig103 vdd tp L=1U W=20U AS=40P AD=40P PS=44U PD=44U 
Mtr_01036 sig86 sx[6] vdd vdd tp L=1U W=10U AS=20P AD=20P PS=24U PD=24U 
Mtr_01035 vdd u10.y0.xr2_x1_sig sig84 vdd tp L=1U W=10U AS=20P AD=20P PS=24U PD=24U 
Mtr_01034 sx[10] sig86 sig106 vdd tp L=1U W=20U AS=40P AD=40P PS=44U PD=44U 
Mtr_01033 sig106 u10.y0.xr2_x1_sig vdd vdd tp L=1U W=20U AS=40P AD=40P PS=44U PD=44U 
Mtr_01032 sig106 sig84 sx[10] vdd tp L=1U W=20U AS=40P AD=40P PS=44U PD=44U 
Mtr_01031 vdd sx[6] sig106 vdd tp L=1U W=20U AS=40P AD=40P PS=44U PD=44U 
Mtr_01030 sig71 sx[2] vdd vdd tp L=1U W=10U AS=20P AD=20P PS=24U PD=24U 
Mtr_01029 vdd u6.y0.xr2_x1_sig sig69 vdd tp L=1U W=10U AS=20P AD=20P PS=24U PD=24U 
Mtr_01028 sx[6] sig71 sig104 vdd tp L=1U W=20U AS=40P AD=40P PS=44U PD=44U 
Mtr_01027 sig104 u6.y0.xr2_x1_sig vdd vdd tp L=1U W=20U AS=40P AD=40P PS=44U PD=44U 
Mtr_01026 sig104 sig69 sx[6] vdd tp L=1U W=20U AS=40P AD=40P PS=44U PD=44U 
Mtr_01025 vdd sx[2] sig104 vdd tp L=1U W=20U AS=40P AD=40P PS=44U PD=44U 
Mtr_01024 sig81 rtl_map_7 vdd vdd tp L=1U W=10U AS=20P AD=20P PS=24U PD=24U 
Mtr_01023 vdd u1.y0.xr2_x1_sig sig78 vdd tp L=1U W=10U AS=20P AD=20P PS=24U PD=24U 
Mtr_01022 sx[1] sig81 sig105 vdd tp L=1U W=20U AS=40P AD=40P PS=44U PD=44U 
Mtr_01021 sig105 u1.y0.xr2_x1_sig vdd vdd tp L=1U W=20U AS=40P AD=40P PS=44U PD=44U 
Mtr_01020 sig105 sig78 sx[1] vdd tp L=1U W=20U AS=40P AD=40P PS=44U PD=44U 
Mtr_01019 vdd rtl_map_7 sig105 vdd tp L=1U W=20U AS=40P AD=40P PS=44U PD=44U 
Mtr_01018 z[2] sig90 vdd vdd tp L=1U W=20U AS=40P AD=40P PS=44U PD=44U 
Mtr_01017 vdd sx[10] sig90 vdd tp L=1U W=6U AS=12P AD=12P PS=16U PD=16U 
Mtr_01016 sig98 rtl_map_9 vdd vdd tp L=1U W=10U AS=20P AD=20P PS=24U PD=24U 
Mtr_01015 vdd u0.y0.xr2_x1_sig sig95 vdd tp L=1U W=10U AS=20P AD=20P PS=24U PD=24U 
Mtr_01014 sx[0] sig98 sig107 vdd tp L=1U W=20U AS=40P AD=40P PS=44U PD=44U 
Mtr_01013 sig107 u0.y0.xr2_x1_sig vdd vdd tp L=1U W=20U AS=40P AD=40P PS=44U PD=44U 
Mtr_01012 sig107 sig95 sx[0] vdd tp L=1U W=20U AS=40P AD=40P PS=44U PD=44U 
Mtr_01011 vdd rtl_map_9 sig107 vdd tp L=1U W=20U AS=40P AD=40P PS=44U PD=44U 
Mtr_01010 cx[3] sig110 vdd vdd tp L=1U W=20U AS=40P AD=40P PS=44U PD=44U 
Mtr_01009 sig108 u3.x1 sig109 vdd tp L=1U W=20U AS=40P AD=40P PS=44U PD=44U 
Mtr_01008 sig108 cx[2] vdd vdd tp L=1U W=14.5U AS=29P AD=29P PS=33U PD=33U 
Mtr_01007 vdd u3.x1 sig108 vdd tp L=1U W=14.5U AS=29P AD=29P PS=33U PD=33U 
Mtr_01006 sig109 cx[2] sig110 vdd tp L=1U W=20U AS=40P AD=40P PS=44U PD=44U 
Mtr_01005 sig110 rtl_map_5 sig108 vdd tp L=1U W=20U AS=40P AD=40P PS=44U PD=44U 
Mtr_01004 u3.x1 sig112 vdd vdd tp L=1U W=20U AS=40P AD=40P PS=44U PD=44U 
Mtr_01003 vdd y[0] sig112 vdd tp L=1U W=10U AS=20P AD=20P PS=24U PD=24U 
Mtr_01002 sig112 x[3] vdd vdd tp L=1U W=10U AS=20P AD=20P PS=24U PD=24U 
Mtr_01001 cx[2] sig119 vdd vdd tp L=1U W=20U AS=40P AD=40P PS=44U PD=44U 
Mtr_01000 sig115 u2.x1 sig118 vdd tp L=1U W=20U AS=40P AD=40P PS=44U PD=44U 
Mtr_00999 sig115 cx[1] vdd vdd tp L=1U W=14.5U AS=29P AD=29P PS=33U PD=33U 
Mtr_00998 vdd u2.x1 sig115 vdd tp L=1U W=14.5U AS=29P AD=29P PS=33U PD=33U 
Mtr_00997 sig118 cx[1] sig119 vdd tp L=1U W=20U AS=40P AD=40P PS=44U PD=44U 
Mtr_00996 sig119 rtl_map_6 sig115 vdd tp L=1U W=20U AS=40P AD=40P PS=44U PD=44U 
Mtr_00995 sig127 cx[1] vdd vdd tp L=1U W=10U AS=20P AD=20P PS=24U PD=24U 
Mtr_00994 vdd u2.x1 sig125 vdd tp L=1U W=10U AS=20P AD=20P PS=24U PD=24U 
Mtr_00993 u2.y0.xr2_x1_sig sig127 sig126 vdd tp L=1U W=20U AS=40P AD=40P PS=44U PD=44U 
Mtr_00992 sig126 u2.x1 vdd vdd tp L=1U W=20U AS=40P AD=40P PS=44U PD=44U 
Mtr_00991 sig126 sig125 u2.y0.xr2_x1_sig vdd tp L=1U W=20U AS=40P AD=40P PS=44U PD=44U 
Mtr_00990 vdd cx[1] sig126 vdd tp L=1U W=20U AS=40P AD=40P PS=44U PD=44U 
Mtr_00989 sig123 rtl_map_6 vdd vdd tp L=1U W=10U AS=20P AD=20P PS=24U PD=24U 
Mtr_00988 vdd u2.y0.xr2_x1_sig sig121 vdd tp L=1U W=10U AS=20P AD=20P PS=24U PD=24U 
Mtr_00987 sx[2] sig123 sig124 vdd tp L=1U W=20U AS=40P AD=40P PS=44U PD=44U 
Mtr_00986 sig124 u2.y0.xr2_x1_sig vdd vdd tp L=1U W=20U AS=40P AD=40P PS=44U PD=44U 
Mtr_00985 sig124 sig121 sx[2] vdd tp L=1U W=20U AS=40P AD=40P PS=44U PD=44U 
Mtr_00984 vdd rtl_map_6 sig124 vdd tp L=1U W=20U AS=40P AD=40P PS=44U PD=44U 
Mtr_00983 cx[1] sig128 vdd vdd tp L=1U W=20U AS=40P AD=40P PS=44U PD=44U 
Mtr_00982 sig129 u1.x1 sig132 vdd tp L=1U W=20U AS=40P AD=40P PS=44U PD=44U 
Mtr_00981 sig129 cx[0] vdd vdd tp L=1U W=14.5U AS=29P AD=29P PS=33U PD=33U 
Mtr_00980 vdd u1.x1 sig129 vdd tp L=1U W=14.5U AS=29P AD=29P PS=33U PD=33U 
Mtr_00979 sig132 cx[0] sig128 vdd tp L=1U W=20U AS=40P AD=40P PS=44U PD=44U 
Mtr_00978 sig128 rtl_map_7 sig129 vdd tp L=1U W=20U AS=40P AD=40P PS=44U PD=44U 
Mtr_00977 u0.x1 sig137 vdd vdd tp L=1U W=20U AS=40P AD=40P PS=44U PD=44U 
Mtr_00976 vdd y[0] sig137 vdd tp L=1U W=10U AS=20P AD=20P PS=24U PD=24U 
Mtr_00975 sig137 x[0] vdd vdd tp L=1U W=10U AS=20P AD=20P PS=24U PD=24U 
Mtr_00974 sig135 cx[0] vdd vdd tp L=1U W=10U AS=20P AD=20P PS=24U PD=24U 
Mtr_00973 vdd u1.x1 sig134 vdd tp L=1U W=10U AS=20P AD=20P PS=24U PD=24U 
Mtr_00972 u1.y0.xr2_x1_sig sig135 sig133 vdd tp L=1U W=20U AS=40P AD=40P PS=44U PD=44U 
Mtr_00971 sig133 u1.x1 vdd vdd tp L=1U W=20U AS=40P AD=40P PS=44U PD=44U 
Mtr_00970 sig133 sig134 u1.y0.xr2_x1_sig vdd tp L=1U W=20U AS=40P AD=40P PS=44U PD=44U 
Mtr_00969 vdd cx[0] sig133 vdd tp L=1U W=20U AS=40P AD=40P PS=44U PD=44U 
Mtr_00968 sig144 rtl_map_8 vdd vdd tp L=1U W=10U AS=20P AD=20P PS=24U PD=24U 
Mtr_00967 vdd u0.x1 sig143 vdd tp L=1U W=10U AS=20P AD=20P PS=24U PD=24U 
Mtr_00966 u0.y0.xr2_x1_sig sig144 sig142 vdd tp L=1U W=20U AS=40P AD=40P PS=44U PD=44U 
Mtr_00965 sig142 u0.x1 vdd vdd tp L=1U W=20U AS=40P AD=40P PS=44U PD=44U 
Mtr_00964 sig142 sig143 u0.y0.xr2_x1_sig vdd tp L=1U W=20U AS=40P AD=40P PS=44U PD=44U 
Mtr_00963 vdd rtl_map_8 sig142 vdd tp L=1U W=20U AS=40P AD=40P PS=44U PD=44U 
Mtr_00962 cx[0] sig140 vdd vdd tp L=1U W=20U AS=40P AD=40P PS=44U PD=44U 
Mtr_00961 sig138 u0.x1 sig139 vdd tp L=1U W=20U AS=40P AD=40P PS=44U PD=44U 
Mtr_00960 sig138 rtl_map_8 vdd vdd tp L=1U W=14.5U AS=29P AD=29P PS=33U PD=33U 
Mtr_00959 vdd u0.x1 sig138 vdd tp L=1U W=14.5U AS=29P AD=29P PS=33U PD=33U 
Mtr_00958 sig139 rtl_map_8 sig140 vdd tp L=1U W=20U AS=40P AD=40P PS=44U PD=44U 
Mtr_00957 sig140 rtl_map_9 sig138 vdd tp L=1U W=20U AS=40P AD=40P PS=44U PD=44U 
Mtr_00956 sig156 cx[6] vdd vdd tp L=1U W=10U AS=20P AD=20P PS=24U PD=24U 
Mtr_00955 vdd u7.x1 sig155 vdd tp L=1U W=10U AS=20P AD=20P PS=24U PD=24U 
Mtr_00954 u7.y0.xr2_x1_sig sig156 sig216 vdd tp L=1U W=20U AS=40P AD=40P PS=44U PD=44U 
Mtr_00953 sig216 u7.x1 vdd vdd tp L=1U W=20U AS=40P AD=40P PS=44U PD=44U 
Mtr_00952 sig216 sig155 u7.y0.xr2_x1_sig vdd tp L=1U W=20U AS=40P AD=40P PS=44U PD=44U 
Mtr_00951 vdd cx[6] sig216 vdd tp L=1U W=20U AS=40P AD=40P PS=44U PD=44U 
Mtr_00950 sig162 sx[3] vdd vdd tp L=1U W=10U AS=20P AD=20P PS=24U PD=24U 
Mtr_00949 vdd u7.y0.xr2_x1_sig sig163 vdd tp L=1U W=10U AS=20P AD=20P PS=24U PD=24U 
Mtr_00948 sx[7] sig162 sig217 vdd tp L=1U W=20U AS=40P AD=40P PS=44U PD=44U 
Mtr_00947 sig217 u7.y0.xr2_x1_sig vdd vdd tp L=1U W=20U AS=40P AD=40P PS=44U PD=44U 
Mtr_00946 sig217 sig163 sx[7] vdd tp L=1U W=20U AS=40P AD=40P PS=44U PD=44U 
Mtr_00945 vdd sx[3] sig217 vdd tp L=1U W=20U AS=40P AD=40P PS=44U PD=44U 
Mtr_00944 cx[7] sig149 vdd vdd tp L=1U W=20U AS=40P AD=40P PS=44U PD=44U 
Mtr_00943 sig212 u7.x1 sig214 vdd tp L=1U W=20U AS=40P AD=40P PS=44U PD=44U 
Mtr_00942 sig212 cx[6] vdd vdd tp L=1U W=14.5U AS=29P AD=29P PS=33U PD=33U 
Mtr_00941 vdd u7.x1 sig212 vdd tp L=1U W=14.5U AS=29P AD=29P PS=33U PD=33U 
Mtr_00940 sig214 cx[6] sig149 vdd tp L=1U W=20U AS=40P AD=40P PS=44U PD=44U 
Mtr_00939 sig149 sx[3] sig212 vdd tp L=1U W=20U AS=40P AD=40P PS=44U PD=44U 
Mtr_00938 u2.x1 sig169 vdd vdd tp L=1U W=20U AS=40P AD=40P PS=44U PD=44U 
Mtr_00937 vdd y[0] sig169 vdd tp L=1U W=10U AS=20P AD=20P PS=24U PD=24U 
Mtr_00936 sig169 x[2] vdd vdd tp L=1U W=10U AS=20P AD=20P PS=24U PD=24U 
Mtr_00935 u16.x1 sig175 vdd vdd tp L=1U W=20U AS=40P AD=40P PS=44U PD=44U 
Mtr_00934 vdd y[3] sig175 vdd tp L=1U W=10U AS=20P AD=20P PS=24U PD=24U 
Mtr_00933 sig175 x[1] vdd vdd tp L=1U W=10U AS=20P AD=20P PS=24U PD=24U 
Mtr_00932 u15.x1 sig183 vdd vdd tp L=1U W=20U AS=40P AD=40P PS=44U PD=44U 
Mtr_00931 vdd y[3] sig183 vdd tp L=1U W=10U AS=20P AD=20P PS=24U PD=24U 
Mtr_00930 sig183 x[0] vdd vdd tp L=1U W=10U AS=20P AD=20P PS=24U PD=24U 
Mtr_00929 u6.x1 sig165 vdd vdd tp L=1U W=20U AS=40P AD=40P PS=44U PD=44U 
Mtr_00928 vdd y[1] sig165 vdd tp L=1U W=10U AS=20P AD=20P PS=24U PD=24U 
Mtr_00927 sig165 x[1] vdd vdd tp L=1U W=10U AS=20P AD=20P PS=24U PD=24U 
Mtr_00926 sig190 rtl_map_1 vdd vdd tp L=1U W=10U AS=20P AD=20P PS=24U PD=24U 
Mtr_00925 vdd u15.x1 sig192 vdd tp L=1U W=10U AS=20P AD=20P PS=24U PD=24U 
Mtr_00924 u15.y0.xr2_x1_sig sig190 sig223 vdd tp L=1U W=20U AS=40P AD=40P PS=44U PD=44U 
Mtr_00923 sig223 u15.x1 vdd vdd tp L=1U W=20U AS=40P AD=40P PS=44U PD=44U 
Mtr_00922 sig223 sig192 u15.y0.xr2_x1_sig vdd tp L=1U W=20U AS=40P AD=40P PS=44U PD=44U 
Mtr_00921 vdd rtl_map_1 sig223 vdd tp L=1U W=20U AS=40P AD=40P PS=44U PD=44U 
Mtr_00920 cx[15] sig184 vdd vdd tp L=1U W=20U AS=40P AD=40P PS=44U PD=44U 
Mtr_00919 sig219 u15.x1 sig221 vdd tp L=1U W=20U AS=40P AD=40P PS=44U PD=44U 
Mtr_00918 sig219 rtl_map_1 vdd vdd tp L=1U W=14.5U AS=29P AD=29P PS=33U PD=33U 
Mtr_00917 vdd u15.x1 sig219 vdd tp L=1U W=14.5U AS=29P AD=29P PS=33U PD=33U 
Mtr_00916 sig221 rtl_map_1 sig184 vdd tp L=1U W=20U AS=40P AD=40P PS=44U PD=44U 
Mtr_00915 sig184 sx[11] sig219 vdd tp L=1U W=20U AS=40P AD=40P PS=44U PD=44U 
Mtr_00914 u20.x1 sig197 vdd vdd tp L=1U W=20U AS=40P AD=40P PS=44U PD=44U 
Mtr_00913 vdd y[4] sig197 vdd tp L=1U W=10U AS=20P AD=20P PS=24U PD=24U 
Mtr_00912 sig197 x[0] vdd vdd tp L=1U W=10U AS=20P AD=20P PS=24U PD=24U 
Mtr_00911 sig206 sx[11] vdd vdd tp L=1U W=10U AS=20P AD=20P PS=24U PD=24U 
Mtr_00910 vdd u15.y0.xr2_x1_sig sig205 vdd tp L=1U W=10U AS=20P AD=20P PS=24U PD=24U 
Mtr_00909 sx[15] sig206 sig225 vdd tp L=1U W=20U AS=40P AD=40P PS=44U PD=44U 
Mtr_00908 sig225 u15.y0.xr2_x1_sig vdd vdd tp L=1U W=20U AS=40P AD=40P PS=44U PD=44U 
Mtr_00907 sig225 sig205 sx[15] vdd tp L=1U W=20U AS=40P AD=40P PS=44U PD=44U 
Mtr_00906 vdd sx[11] sig225 vdd tp L=1U W=20U AS=40P AD=40P PS=44U PD=44U 
Mtr_00905 u1.x1 sig178 vdd vdd tp L=1U W=20U AS=40P AD=40P PS=44U PD=44U 
Mtr_00904 vdd y[0] sig178 vdd tp L=1U W=10U AS=20P AD=20P PS=24U PD=24U 
Mtr_00903 sig178 x[1] vdd vdd tp L=1U W=10U AS=20P AD=20P PS=24U PD=24U 
Mtr_00902 z[3] sig209 vdd vdd tp L=1U W=20U AS=40P AD=40P PS=44U PD=44U 
Mtr_00901 vdd sx[15] sig209 vdd tp L=1U W=6U AS=12P AD=12P PS=16U PD=16U 
Mtr_00900 u7.x1 sig232 vdd vdd tp L=1U W=20U AS=40P AD=40P PS=44U PD=44U 
Mtr_00899 vdd y[1] sig232 vdd tp L=1U W=10U AS=20P AD=20P PS=24U PD=24U 
Mtr_00898 sig232 x[2] vdd vdd tp L=1U W=10U AS=20P AD=20P PS=24U PD=24U 
Mtr_00897 u8.x1 sig226 vdd vdd tp L=1U W=20U AS=40P AD=40P PS=44U PD=44U 
Mtr_00896 vdd y[1] sig226 vdd tp L=1U W=10U AS=20P AD=20P PS=24U PD=24U 
Mtr_00895 sig226 x[3] vdd vdd tp L=1U W=10U AS=20P AD=20P PS=24U PD=24U 
Mtr_00894 sig231 cx[7] vdd vdd tp L=1U W=10U AS=20P AD=20P PS=24U PD=24U 
Mtr_00893 vdd u8.x1 sig228 vdd tp L=1U W=10U AS=20P AD=20P PS=24U PD=24U 
Mtr_00892 u8.y0.xr2_x1_sig sig231 sig230 vdd tp L=1U W=20U AS=40P AD=40P PS=44U PD=44U 
Mtr_00891 sig230 u8.x1 vdd vdd tp L=1U W=20U AS=40P AD=40P PS=44U PD=44U 
Mtr_00890 sig230 sig228 u8.y0.xr2_x1_sig vdd tp L=1U W=20U AS=40P AD=40P PS=44U PD=44U 
Mtr_00889 vdd cx[7] sig230 vdd tp L=1U W=20U AS=40P AD=40P PS=44U PD=44U 
Mtr_00888 sig243 cx[15] vdd vdd tp L=1U W=10U AS=20P AD=20P PS=24U PD=24U 
Mtr_00887 vdd u16.x1 sig242 vdd tp L=1U W=10U AS=20P AD=20P PS=24U PD=24U 
Mtr_00886 u16.y0.xr2_x1_sig sig243 sig241 vdd tp L=1U W=20U AS=40P AD=40P PS=44U PD=44U 
Mtr_00885 sig241 u16.x1 vdd vdd tp L=1U W=20U AS=40P AD=40P PS=44U PD=44U 
Mtr_00884 sig241 sig242 u16.y0.xr2_x1_sig vdd tp L=1U W=20U AS=40P AD=40P PS=44U PD=44U 
Mtr_00883 vdd cx[15] sig241 vdd tp L=1U W=20U AS=40P AD=40P PS=44U PD=44U 
Mtr_00882 cx[16] sig237 vdd vdd tp L=1U W=20U AS=40P AD=40P PS=44U PD=44U 
Mtr_00881 sig235 u16.x1 sig236 vdd tp L=1U W=20U AS=40P AD=40P PS=44U PD=44U 
Mtr_00880 sig235 cx[15] vdd vdd tp L=1U W=14.5U AS=29P AD=29P PS=33U PD=33U 
Mtr_00879 vdd u16.x1 sig235 vdd tp L=1U W=14.5U AS=29P AD=29P PS=33U PD=33U 
Mtr_00878 sig236 cx[15] sig237 vdd tp L=1U W=20U AS=40P AD=40P PS=44U PD=44U 
Mtr_00877 sig237 sx[12] sig235 vdd tp L=1U W=20U AS=40P AD=40P PS=44U PD=44U 
Mtr_00876 u11.x1 sig233 vdd vdd tp L=1U W=20U AS=40P AD=40P PS=44U PD=44U 
Mtr_00875 vdd y[2] sig233 vdd tp L=1U W=10U AS=20P AD=20P PS=24U PD=24U 
Mtr_00874 sig233 x[1] vdd vdd tp L=1U W=10U AS=20P AD=20P PS=24U PD=24U 
Mtr_00873 sig245 sx[12] vdd vdd tp L=1U W=10U AS=20P AD=20P PS=24U PD=24U 
Mtr_00872 vdd u16.y0.xr2_x1_sig sig244 vdd tp L=1U W=10U AS=20P AD=20P PS=24U PD=24U 
Mtr_00871 sx[16] sig245 sig246 vdd tp L=1U W=20U AS=40P AD=40P PS=44U PD=44U 
Mtr_00870 sig246 u16.y0.xr2_x1_sig vdd vdd tp L=1U W=20U AS=40P AD=40P PS=44U PD=44U 
Mtr_00869 sig246 sig244 sx[16] vdd tp L=1U W=20U AS=40P AD=40P PS=44U PD=44U 
Mtr_00868 vdd sx[12] sig246 vdd tp L=1U W=20U AS=40P AD=40P PS=44U PD=44U 
Mtr_00867 u21.x1 sig248 vdd vdd tp L=1U W=20U AS=40P AD=40P PS=44U PD=44U 
Mtr_00866 vdd y[4] sig248 vdd tp L=1U W=10U AS=20P AD=20P PS=24U PD=24U 
Mtr_00865 sig248 x[1] vdd vdd tp L=1U W=10U AS=20P AD=20P PS=24U PD=24U 
Mtr_00864 cx[20] sig252 vdd vdd tp L=1U W=20U AS=40P AD=40P PS=44U PD=44U 
Mtr_00863 sig249 u20.x1 sig253 vdd tp L=1U W=20U AS=40P AD=40P PS=44U PD=44U 
Mtr_00862 sig249 rtl_map_0 vdd vdd tp L=1U W=14.5U AS=29P AD=29P PS=33U PD=33U 
Mtr_00861 vdd u20.x1 sig249 vdd tp L=1U W=14.5U AS=29P AD=29P PS=33U PD=33U 
Mtr_00860 sig253 rtl_map_0 sig252 vdd tp L=1U W=20U AS=40P AD=40P PS=44U PD=44U 
Mtr_00859 sig252 sx[16] sig249 vdd tp L=1U W=20U AS=40P AD=40P PS=44U PD=44U 
Mtr_00858 sig257 rtl_map_0 vdd vdd tp L=1U W=10U AS=20P AD=20P PS=24U PD=24U 
Mtr_00857 vdd u20.x1 sig255 vdd tp L=1U W=10U AS=20P AD=20P PS=24U PD=24U 
Mtr_00856 u20.y0.xr2_x1_sig sig257 sig254 vdd tp L=1U W=20U AS=40P AD=40P PS=44U PD=44U 
Mtr_00855 sig254 u20.x1 vdd vdd tp L=1U W=20U AS=40P AD=40P PS=44U PD=44U 
Mtr_00854 sig254 sig255 u20.y0.xr2_x1_sig vdd tp L=1U W=20U AS=40P AD=40P PS=44U PD=44U 
Mtr_00853 vdd rtl_map_0 sig254 vdd tp L=1U W=20U AS=40P AD=40P PS=44U PD=44U 
Mtr_00852 sig261 sx[16] vdd vdd tp L=1U W=10U AS=20P AD=20P PS=24U PD=24U 
Mtr_00851 vdd u20.y0.xr2_x1_sig sig258 vdd tp L=1U W=10U AS=20P AD=20P PS=24U PD=24U 
Mtr_00850 sx[20] sig261 sig260 vdd tp L=1U W=20U AS=40P AD=40P PS=44U PD=44U 
Mtr_00849 sig260 u20.y0.xr2_x1_sig vdd vdd tp L=1U W=20U AS=40P AD=40P PS=44U PD=44U 
Mtr_00848 sig260 sig258 sx[20] vdd tp L=1U W=20U AS=40P AD=40P PS=44U PD=44U 
Mtr_00847 vdd sx[16] sig260 vdd tp L=1U W=20U AS=40P AD=40P PS=44U PD=44U 
Mtr_00846 z[4] sig262 vdd vdd tp L=1U W=20U AS=40P AD=40P PS=44U PD=44U 
Mtr_00845 vdd sx[20] sig262 vdd tp L=1U W=6U AS=12P AD=12P PS=16U PD=16U 
Mtr_00844 cx[8] sig306 vdd vdd tp L=1U W=20U AS=40P AD=40P PS=44U PD=44U 
Mtr_00843 sig310 u8.x1 sig311 vdd tp L=1U W=20U AS=40P AD=40P PS=44U PD=44U 
Mtr_00842 sig310 cx[7] vdd vdd tp L=1U W=14.5U AS=29P AD=29P PS=33U PD=33U 
Mtr_00841 vdd u8.x1 sig310 vdd tp L=1U W=14.5U AS=29P AD=29P PS=33U PD=33U 
Mtr_00840 sig311 cx[7] sig306 vdd tp L=1U W=20U AS=40P AD=40P PS=44U PD=44U 
Mtr_00839 sig306 sx[4] sig310 vdd tp L=1U W=20U AS=40P AD=40P PS=44U PD=44U 
Mtr_00838 sig269 sx[4] vdd vdd tp L=1U W=10U AS=20P AD=20P PS=24U PD=24U 
Mtr_00837 vdd u8.y0.xr2_x1_sig sig268 vdd tp L=1U W=10U AS=20P AD=20P PS=24U PD=24U 
Mtr_00836 sx[8] sig269 sig315 vdd tp L=1U W=20U AS=40P AD=40P PS=44U PD=44U 
Mtr_00835 sig315 u8.y0.xr2_x1_sig vdd vdd tp L=1U W=20U AS=40P AD=40P PS=44U PD=44U 
Mtr_00834 sig315 sig268 sx[8] vdd tp L=1U W=20U AS=40P AD=40P PS=44U PD=44U 
Mtr_00833 vdd sx[4] sig315 vdd tp L=1U W=20U AS=40P AD=40P PS=44U PD=44U 
Mtr_00832 sig273 cx[11] vdd vdd tp L=1U W=10U AS=20P AD=20P PS=24U PD=24U 
Mtr_00831 vdd u12.x1 sig276 vdd tp L=1U W=10U AS=20P AD=20P PS=24U PD=24U 
Mtr_00830 u12.y0.xr2_x1_sig sig273 sig318 vdd tp L=1U W=20U AS=40P AD=40P PS=44U PD=44U 
Mtr_00829 sig318 u12.x1 vdd vdd tp L=1U W=20U AS=40P AD=40P PS=44U PD=44U 
Mtr_00828 sig318 sig276 u12.y0.xr2_x1_sig vdd tp L=1U W=20U AS=40P AD=40P PS=44U PD=44U 
Mtr_00827 vdd cx[11] sig318 vdd tp L=1U W=20U AS=40P AD=40P PS=44U PD=44U 
Mtr_00826 sig282 sx[8] vdd vdd tp L=1U W=10U AS=20P AD=20P PS=24U PD=24U 
Mtr_00825 vdd u12.y0.xr2_x1_sig sig281 vdd tp L=1U W=10U AS=20P AD=20P PS=24U PD=24U 
Mtr_00824 sx[12] sig282 sig320 vdd tp L=1U W=20U AS=40P AD=40P PS=44U PD=44U 
Mtr_00823 sig320 u12.y0.xr2_x1_sig vdd vdd tp L=1U W=20U AS=40P AD=40P PS=44U PD=44U 
Mtr_00822 sig320 sig281 sx[12] vdd tp L=1U W=20U AS=40P AD=40P PS=44U PD=44U 
Mtr_00821 vdd sx[8] sig320 vdd tp L=1U W=20U AS=40P AD=40P PS=44U PD=44U 
Mtr_00820 sig288 cx[10] vdd vdd tp L=1U W=10U AS=20P AD=20P PS=24U PD=24U 
Mtr_00819 vdd u11.x1 sig287 vdd tp L=1U W=10U AS=20P AD=20P PS=24U PD=24U 
Mtr_00818 u11.y0.xr2_x1_sig sig288 sig329 vdd tp L=1U W=20U AS=40P AD=40P PS=44U PD=44U 
Mtr_00817 sig329 u11.x1 vdd vdd tp L=1U W=20U AS=40P AD=40P PS=44U PD=44U 
Mtr_00816 sig329 sig287 u11.y0.xr2_x1_sig vdd tp L=1U W=20U AS=40P AD=40P PS=44U PD=44U 
Mtr_00815 vdd cx[10] sig329 vdd tp L=1U W=20U AS=40P AD=40P PS=44U PD=44U 
Mtr_00814 cx[11] sig322 vdd vdd tp L=1U W=20U AS=40P AD=40P PS=44U PD=44U 
Mtr_00813 sig325 u11.x1 sig326 vdd tp L=1U W=20U AS=40P AD=40P PS=44U PD=44U 
Mtr_00812 sig325 cx[10] vdd vdd tp L=1U W=14.5U AS=29P AD=29P PS=33U PD=33U 
Mtr_00811 vdd u11.x1 sig325 vdd tp L=1U W=14.5U AS=29P AD=29P PS=33U PD=33U 
Mtr_00810 sig326 cx[10] sig322 vdd tp L=1U W=20U AS=40P AD=40P PS=44U PD=44U 
Mtr_00809 sig322 sx[7] sig325 vdd tp L=1U W=20U AS=40P AD=40P PS=44U PD=44U 
Mtr_00808 sig293 sx[7] vdd vdd tp L=1U W=10U AS=20P AD=20P PS=24U PD=24U 
Mtr_00807 vdd u11.y0.xr2_x1_sig sig292 vdd tp L=1U W=10U AS=20P AD=20P PS=24U PD=24U 
Mtr_00806 sx[11] sig293 sig331 vdd tp L=1U W=20U AS=40P AD=40P PS=44U PD=44U 
Mtr_00805 sig331 u11.y0.xr2_x1_sig vdd vdd tp L=1U W=20U AS=40P AD=40P PS=44U PD=44U 
Mtr_00804 sig331 sig292 sx[11] vdd tp L=1U W=20U AS=40P AD=40P PS=44U PD=44U 
Mtr_00803 vdd sx[7] sig331 vdd tp L=1U W=20U AS=40P AD=40P PS=44U PD=44U 
Mtr_00802 sig298 cx[20] vdd vdd tp L=1U W=10U AS=20P AD=20P PS=24U PD=24U 
Mtr_00801 vdd u21.x1 sig297 vdd tp L=1U W=10U AS=20P AD=20P PS=24U PD=24U 
Mtr_00800 u21.y0.xr2_x1_sig sig298 sig340 vdd tp L=1U W=20U AS=40P AD=40P PS=44U PD=44U 
Mtr_00799 sig340 u21.x1 vdd vdd tp L=1U W=20U AS=40P AD=40P PS=44U PD=44U 
Mtr_00798 sig340 sig297 u21.y0.xr2_x1_sig vdd tp L=1U W=20U AS=40P AD=40P PS=44U PD=44U 
Mtr_00797 vdd cx[20] sig340 vdd tp L=1U W=20U AS=40P AD=40P PS=44U PD=44U 
Mtr_00796 cx[21] sig334 vdd vdd tp L=1U W=20U AS=40P AD=40P PS=44U PD=44U 
Mtr_00795 sig333 u21.x1 sig337 vdd tp L=1U W=20U AS=40P AD=40P PS=44U PD=44U 
Mtr_00794 sig333 cx[20] vdd vdd tp L=1U W=14.5U AS=29P AD=29P PS=33U PD=33U 
Mtr_00793 vdd u21.x1 sig333 vdd tp L=1U W=14.5U AS=29P AD=29P PS=33U PD=33U 
Mtr_00792 sig337 cx[20] sig334 vdd tp L=1U W=20U AS=40P AD=40P PS=44U PD=44U 
Mtr_00791 sig334 sx[17] sig333 vdd tp L=1U W=20U AS=40P AD=40P PS=44U PD=44U 
Mtr_00790 sig302 sx[17] vdd vdd tp L=1U W=10U AS=20P AD=20P PS=24U PD=24U 
Mtr_00789 vdd u21.y0.xr2_x1_sig sig301 vdd tp L=1U W=10U AS=20P AD=20P PS=24U PD=24U 
Mtr_00788 sx[21] sig302 sig345 vdd tp L=1U W=20U AS=40P AD=40P PS=44U PD=44U 
Mtr_00787 sig345 u21.y0.xr2_x1_sig vdd vdd tp L=1U W=20U AS=40P AD=40P PS=44U PD=44U 
Mtr_00786 sig345 sig301 sx[21] vdd tp L=1U W=20U AS=40P AD=40P PS=44U PD=44U 
Mtr_00785 vdd sx[17] sig345 vdd tp L=1U W=20U AS=40P AD=40P PS=44U PD=44U 
Mtr_00784 z[5] sig305 vdd vdd tp L=1U W=20U AS=40P AD=40P PS=44U PD=44U 
Mtr_00783 vdd sx[21] sig305 vdd tp L=1U W=6U AS=12P AD=12P PS=16U PD=16U 
Mtr_00782 sig351 rtl_map_4 vdd vdd tp L=1U W=10U AS=20P AD=20P PS=24U PD=24U 
Mtr_00781 vdd u4.y0.xr2_x1_sig sig348 vdd tp L=1U W=10U AS=20P AD=20P PS=24U PD=24U 
Mtr_00780 sx[4] sig351 sig347 vdd tp L=1U W=20U AS=40P AD=40P PS=44U PD=44U 
Mtr_00779 sig347 u4.y0.xr2_x1_sig vdd vdd tp L=1U W=20U AS=40P AD=40P PS=44U PD=44U 
Mtr_00778 sig347 sig348 sx[4] vdd tp L=1U W=20U AS=40P AD=40P PS=44U PD=44U 
Mtr_00777 vdd rtl_map_4 sig347 vdd tp L=1U W=20U AS=40P AD=40P PS=44U PD=44U 
Mtr_00776 u12.x1 sig352 vdd vdd tp L=1U W=20U AS=40P AD=40P PS=44U PD=44U 
Mtr_00775 vdd y[2] sig352 vdd tp L=1U W=10U AS=20P AD=20P PS=24U PD=24U 
Mtr_00774 sig352 x[2] vdd vdd tp L=1U W=10U AS=20P AD=20P PS=24U PD=24U 
Mtr_00773 cx[12] sig356 vdd vdd tp L=1U W=20U AS=40P AD=40P PS=44U PD=44U 
Mtr_00772 sig353 u12.x1 sig354 vdd tp L=1U W=20U AS=40P AD=40P PS=44U PD=44U 
Mtr_00771 sig353 cx[11] vdd vdd tp L=1U W=14.5U AS=29P AD=29P PS=33U PD=33U 
Mtr_00770 vdd u12.x1 sig353 vdd tp L=1U W=14.5U AS=29P AD=29P PS=33U PD=33U 
Mtr_00769 sig354 cx[11] sig356 vdd tp L=1U W=20U AS=40P AD=40P PS=44U PD=44U 
Mtr_00768 sig356 sx[8] sig353 vdd tp L=1U W=20U AS=40P AD=40P PS=44U PD=44U 
Mtr_00767 u17.x1 sig357 vdd vdd tp L=1U W=20U AS=40P AD=40P PS=44U PD=44U 
Mtr_00766 vdd y[3] sig357 vdd tp L=1U W=10U AS=20P AD=20P PS=24U PD=24U 
Mtr_00765 sig357 x[2] vdd vdd tp L=1U W=10U AS=20P AD=20P PS=24U PD=24U 
Mtr_00764 sig370 sx[13] vdd vdd tp L=1U W=10U AS=20P AD=20P PS=24U PD=24U 
Mtr_00763 vdd u17.y0.xr2_x1_sig sig369 vdd tp L=1U W=10U AS=20P AD=20P PS=24U PD=24U 
Mtr_00762 sx[17] sig370 sig368 vdd tp L=1U W=20U AS=40P AD=40P PS=44U PD=44U 
Mtr_00761 sig368 u17.y0.xr2_x1_sig vdd vdd tp L=1U W=20U AS=40P AD=40P PS=44U PD=44U 
Mtr_00760 sig368 sig369 sx[17] vdd tp L=1U W=20U AS=40P AD=40P PS=44U PD=44U 
Mtr_00759 vdd sx[13] sig368 vdd tp L=1U W=20U AS=40P AD=40P PS=44U PD=44U 
Mtr_00758 sig367 cx[16] vdd vdd tp L=1U W=10U AS=20P AD=20P PS=24U PD=24U 
Mtr_00757 vdd u17.x1 sig364 vdd tp L=1U W=10U AS=20P AD=20P PS=24U PD=24U 
Mtr_00756 u17.y0.xr2_x1_sig sig367 sig363 vdd tp L=1U W=20U AS=40P AD=40P PS=44U PD=44U 
Mtr_00755 sig363 u17.x1 vdd vdd tp L=1U W=20U AS=40P AD=40P PS=44U PD=44U 
Mtr_00754 sig363 sig364 u17.y0.xr2_x1_sig vdd tp L=1U W=20U AS=40P AD=40P PS=44U PD=44U 
Mtr_00753 vdd cx[16] sig363 vdd tp L=1U W=20U AS=40P AD=40P PS=44U PD=44U 
Mtr_00752 cx[17] sig361 vdd vdd tp L=1U W=20U AS=40P AD=40P PS=44U PD=44U 
Mtr_00751 sig359 u17.x1 sig360 vdd tp L=1U W=20U AS=40P AD=40P PS=44U PD=44U 
Mtr_00750 sig359 cx[16] vdd vdd tp L=1U W=14.5U AS=29P AD=29P PS=33U PD=33U 
Mtr_00749 vdd u17.x1 sig359 vdd tp L=1U W=14.5U AS=29P AD=29P PS=33U PD=33U 
Mtr_00748 sig360 cx[16] sig361 vdd tp L=1U W=20U AS=40P AD=40P PS=44U PD=44U 
Mtr_00747 sig361 sx[13] sig359 vdd tp L=1U W=20U AS=40P AD=40P PS=44U PD=44U 
Mtr_00746 u22.x1 sig371 vdd vdd tp L=1U W=20U AS=40P AD=40P PS=44U PD=44U 
Mtr_00745 vdd y[4] sig371 vdd tp L=1U W=10U AS=20P AD=20P PS=24U PD=24U 
Mtr_00744 sig371 x[2] vdd vdd tp L=1U W=10U AS=20P AD=20P PS=24U PD=24U 
Mtr_00743 sig376 cx[21] vdd vdd tp L=1U W=10U AS=20P AD=20P PS=24U PD=24U 
Mtr_00742 vdd u22.x1 sig374 vdd tp L=1U W=10U AS=20P AD=20P PS=24U PD=24U 
Mtr_00741 u22.y0.xr2_x1_sig sig376 sig373 vdd tp L=1U W=20U AS=40P AD=40P PS=44U PD=44U 
Mtr_00740 sig373 u22.x1 vdd vdd tp L=1U W=20U AS=40P AD=40P PS=44U PD=44U 
Mtr_00739 sig373 sig374 u22.y0.xr2_x1_sig vdd tp L=1U W=20U AS=40P AD=40P PS=44U PD=44U 
Mtr_00738 vdd cx[21] sig373 vdd tp L=1U W=20U AS=40P AD=40P PS=44U PD=44U 
Mtr_00737 z[6] sig383 vdd vdd tp L=1U W=20U AS=40P AD=40P PS=44U PD=44U 
Mtr_00736 vdd sx[22] sig383 vdd tp L=1U W=6U AS=12P AD=12P PS=16U PD=16U 
Mtr_00735 sig381 sx[18] vdd vdd tp L=1U W=10U AS=20P AD=20P PS=24U PD=24U 
Mtr_00734 vdd u22.y0.xr2_x1_sig sig377 vdd tp L=1U W=10U AS=20P AD=20P PS=24U PD=24U 
Mtr_00733 sx[22] sig381 sig378 vdd tp L=1U W=20U AS=40P AD=40P PS=44U PD=44U 
Mtr_00732 sig378 u22.y0.xr2_x1_sig vdd vdd tp L=1U W=20U AS=40P AD=40P PS=44U PD=44U 
Mtr_00731 sig378 sig377 sx[22] vdd tp L=1U W=20U AS=40P AD=40P PS=44U PD=44U 
Mtr_00730 vdd sx[18] sig378 vdd tp L=1U W=20U AS=40P AD=40P PS=44U PD=44U 
Mtr_00729 sig405 cx[3] vdd vdd tp L=1U W=10U AS=20P AD=20P PS=24U PD=24U 
Mtr_00728 vdd u4.x1 sig402 vdd tp L=1U W=10U AS=20P AD=20P PS=24U PD=24U 
Mtr_00727 u4.y0.xr2_x1_sig sig405 sig449 vdd tp L=1U W=20U AS=40P AD=40P PS=44U PD=44U 
Mtr_00726 sig449 u4.x1 vdd vdd tp L=1U W=20U AS=40P AD=40P PS=44U PD=44U 
Mtr_00725 sig449 sig402 u4.y0.xr2_x1_sig vdd tp L=1U W=20U AS=40P AD=40P PS=44U PD=44U 
Mtr_00724 vdd cx[3] sig449 vdd tp L=1U W=20U AS=40P AD=40P PS=44U PD=44U 
Mtr_00723 cx[4] sig408 vdd vdd tp L=1U W=20U AS=40P AD=40P PS=44U PD=44U 
Mtr_00722 sig456 u4.x1 sig458 vdd tp L=1U W=20U AS=40P AD=40P PS=44U PD=44U 
Mtr_00721 sig456 cx[3] vdd vdd tp L=1U W=14.5U AS=29P AD=29P PS=33U PD=33U 
Mtr_00720 vdd u4.x1 sig456 vdd tp L=1U W=14.5U AS=29P AD=29P PS=33U PD=33U 