* Spice description of act4_cougar
* Spice driver version -1209221468
* Date ( dd/mm/yyyy hh:mm:ss ): 22/11/2020 at 11:09:04

* INTERF clk dh[0] dh[1] dh[2] dh[3] dm[0] dm[1] dm[2] dm[3] rst uh[0] uh[1] 
* INTERF uh[2] uh[3] um[0] um[1] um[2] um[3] vdd vss 


.subckt act4_cougar 604 180 124 17 74 408 363 324 260 595 225 224 228 182 563 499 588 497 608 561 
* NET 17 = dh[2]
* NET 18 = mdh_2_ins.ckr
* NET 19 = mdh_2_ins.nckr
* NET 20 = mdh_2_ins.sff_m
* NET 21 = mdh_2_ins.y
* NET 23 = mdh_2_ins.sff_s
* NET 25 = mdh_2_ins.u
* NET 28 = no2_x1_sig
* NET 32 = nxr2_x1_sig
* NET 35 = mdm_1_ins.ckr
* NET 36 = mdm_1_ins.nckr
* NET 37 = mdm_1_ins.sff_m
* NET 39 = mdm_1_ins.sff_s
* NET 42 = mdm_1_ins.y
* NET 45 = mdm_1_ins.u
* NET 50 = mdm_3_ins.ckr
* NET 51 = mdm_3_ins.nckr
* NET 52 = mdm_3_ins.sff_s
* NET 54 = mdm_3_ins.sff_m
* NET 55 = mdm_3_ins.y
* NET 60 = mdm_3_ins.u
* NET 62 = no2_x1_8_sig
* NET 64 = na2_x1_4_sig
* NET 66 = noa22_x1_5_sig
* NET 71 = o3_x2_2_sig
* NET 74 = dh[3]
* NET 76 = mdh[2]
* NET 79 = mbk_buf_aux14
* NET 80 = no2_x1_4_sig
* NET 84 = no4_x1_2_sig
* NET 85 = noa2a2a23_x1_sig
* NET 86 = muh_1_ins.y
* NET 88 = muh_1_ins.sff_s
* NET 90 = no2_x1_3_sig
* NET 91 = muh_1_ins.u
* NET 92 = muh_1_ins.sff_m
* NET 94 = muh_1_ins.ckr
* NET 95 = muh_1_ins.nckr
* NET 98 = nxr2_x1_4_sig
* NET 102 = not_aux35
* NET 103 = no3_x1_2_sig
* NET 104 = mbk_buf_mdm[3]
* NET 105 = no2_x1_7_sig
* NET 124 = dh[1]
* NET 128 = not_mdh[2]
* NET 130 = an12_x1_sig
* NET 135 = nxr2_x1_2_sig
* NET 136 = mdh[3]
* NET 138 = mdh_3_ins.sff_s
* NET 139 = mdh_3_ins.y
* NET 141 = no2_x1_2_sig
* NET 142 = mdh_3_ins.u
* NET 143 = mdh_3_ins.sff_m
* NET 145 = mdh_3_ins.ckr
* NET 147 = mdh_3_ins.nckr
* NET 148 = nao22_x1_sig
* NET 151 = a3_x2_2_sig
* NET 153 = inv_x2_2_sig
* NET 155 = aux23
* NET 157 = mdm_2_ins.y
* NET 159 = mdm_2_ins.sff_s
* NET 160 = mdm_2_ins.ckr
* NET 161 = mdm_2_ins.u
* NET 164 = mdm_2_ins.sff_m
* NET 166 = mdm_2_ins.nckr
* NET 169 = noa22_x1_6_sig
* NET 172 = on12_x1_6_sig
* NET 173 = xr2_x1_6_sig
* NET 180 = dh[0]
* NET 182 = uh[3]
* NET 183 = aux14
* NET 184 = not_aux11
* NET 185 = not_muh[3]
* NET 188 = na2_x1_3_sig
* NET 190 = no3_x1_sig
* NET 192 = o2_x2_3_sig
* NET 195 = not_boom_init_9
* NET 198 = muh_0_ins.sff_s
* NET 200 = muh_0_ins.y
* NET 202 = muh_0_ins.sff_m
* NET 204 = muh_0_ins.u
* NET 205 = muh_0_ins.ckr
* NET 206 = muh_0_ins.nckr
* NET 208 = mbk_buf_not_aux22
* NET 210 = o2_x2_4_sig
* NET 224 = uh[1]
* NET 225 = uh[0]
* NET 228 = uh[2]
* NET 232 = a2_x2_2_sig
* NET 233 = muh[1]
* NET 235 = muh_3_ins.y
* NET 236 = muh_3_ins.sff_m
* NET 239 = muh_3_ins.sff_s
* NET 240 = muh_3_ins.u
* NET 242 = muh_3_ins.ckr
* NET 243 = muh_3_ins.nckr
* NET 245 = on12_x1_4_sig
* NET 246 = noa22_x1_3_sig
* NET 248 = na2_x1_2_sig
* NET 250 = not_aux18
* NET 251 = mdm[1]
* NET 252 = not_mdm[2]
* NET 256 = no4_x1_sig
* NET 258 = aux35
* NET 260 = dm[3]
* NET 261 = inv_x2_sig
* NET 268 = a3_x2_sig
* NET 271 = not_aux24
* NET 276 = noa22_x1_4_sig
* NET 283 = xr2_x1_5_sig
* NET 286 = na4_x1_2_sig
* NET 289 = not_aux22
* NET 296 = xr2_x1_3_sig
* NET 297 = not_mdm[1]
* NET 305 = not_muh[1]
* NET 307 = on12_x1_5_sig
* NET 308 = na3_x1_2_sig
* NET 314 = muh[3]
* NET 315 = no2_x1_5_sig
* NET 322 = mbk_buf_not_aux19
* NET 323 = muh[0]
* NET 324 = dm[2]
* NET 326 = na3_x1_sig
* NET 329 = na2_x1_sig
* NET 330 = mdm[2]
* NET 331 = na4_x1_sig
* NET 332 = not_muh[2]
* NET 335 = xr2_x1_4_sig
* NET 338 = muh[2]
* NET 340 = muh_2_ins.sff_s
* NET 341 = muh_2_ins.y
* NET 343 = muh_2_ins.sff_m
* NET 344 = ao22_x2_sig
* NET 345 = muh_2_ins.u
* NET 347 = muh_2_ins.ckr
* NET 348 = muh_2_ins.nckr
* NET 349 = aux26
* NET 352 = an12_x1_3_sig
* NET 353 = mbk_buf_not_aux1
* NET 354 = not_aux1
* NET 357 = not_aux19
* NET 358 = not_aux38
* NET 361 = not_mdm[0]
* NET 362 = aux40
* NET 363 = dm[1]
* NET 371 = no4_x1_3_sig
* NET 376 = aux1
* NET 384 = not_aux9
* NET 388 = inv_x2_3_sig
* NET 390 = not_aux31
* NET 395 = a4_x2_sig
* NET 396 = an12_x1_2_sig
* NET 397 = a2_x2_sig
* NET 400 = not_mdh[1]
* NET 404 = aux37
* NET 407 = mbk_buf_not_aux9
* NET 408 = dm[0]
* NET 412 = mdm[3]
* NET 413 = mdm_0_ins.sff_s
* NET 415 = mdm_0_ins.ckr
* NET 416 = mdm_0_ins.sff_m
* NET 418 = mdm_0_ins.y
* NET 419 = mdm_0_ins.u
* NET 420 = no2_x1_6_sig
* NET 421 = mdm_0_ins.nckr
* NET 425 = mdm[0]
* NET 426 = nxr2_x1_3_sig
* NET 429 = aux10
* NET 432 = mbk_buf_aux10
* NET 435 = mdh[1]
* NET 436 = mdh_1_ins.sff_s
* NET 438 = mdh_1_ins.y
* NET 440 = mdh_1_ins.sff_m
* NET 442 = xr2_x1_2_sig
* NET 443 = mdh_1_ins.u
* NET 444 = mdh_1_ins.ckr
* NET 445 = mdh_1_ins.nckr
* NET 447 = on12_x1_3_sig
* NET 448 = o2_x2_2_sig
* NET 449 = o3_x2_sig
* NET 450 = noa22_x1_2_sig
* NET 451 = on12_x1_2_sig
* NET 455 = mum_1_ins.sff_s
* NET 456 = mum_1_ins.y
* NET 458 = mum_1_ins.sff_m
* NET 459 = mum_1_ins.u
* NET 461 = mum_1_ins.ckr
* NET 462 = mum[1]
* NET 463 = mum_1_ins.nckr
* NET 466 = not_aux25
* NET 470 = o3_x2_3_sig
* NET 471 = noa22_x1_7_sig
* NET 473 = o2_x2_5_sig
* NET 479 = not_mum[1]
* NET 483 = aux34
* NET 497 = um[3]
* NET 499 = um[1]
* NET 502 = mum_3_ins.y
* NET 503 = mum_3_ins.sff_s
* NET 505 = mum_3_ins.u
* NET 507 = mum_3_ins.sff_m
* NET 510 = mum_3_ins.ckr
* NET 511 = mum_3_ins.nckr
* NET 513 = not_aux0
* NET 514 = not_mdh[0]
* NET 517 = mum[3]
* NET 521 = xr2_x1_8_sig
* NET 527 = noa22_x1_9_sig
* NET 530 = not_mum[3]
* NET 532 = o2_x2_7_sig
* NET 533 = o3_x2_4_sig
* NET 534 = on12_x1_8_sig
* NET 537 = oa22_x2_sig
* NET 538 = mbk_buf_mum[1]
* NET 542 = xr2_x1_7_sig
* NET 546 = on12_x1_7_sig
* NET 551 = mum_2_ins.sff_m
* NET 552 = mum_2_ins.sff_s
* NET 553 = mum_2_ins.y
* NET 555 = noa22_x1_8_sig
* NET 557 = mum_2_ins.u
* NET 558 = mum_2_ins.ckr
* NET 559 = mum_2_ins.nckr
* NET 561 = vss
* NET 563 = um[0]
* NET 564 = aux9
* NET 567 = mbk_buf_aux9
* NET 570 = xr2_x1_sig
* NET 571 = aux0
* NET 573 = o2_x2_sig
* NET 574 = on12_x1_sig
* NET 577 = mdh[0]
* NET 578 = mdh_0_ins.sff_s
* NET 579 = mdh_0_ins.y
* NET 581 = mdh_0_ins.sff_m
* NET 582 = noa22_x1_sig
* NET 583 = mdh_0_ins.u
* NET 585 = mdh_0_ins.ckr
* NET 586 = mdh_0_ins.nckr
* NET 588 = um[2]
* NET 589 = not_mum[0]
* NET 592 = o2_x2_6_sig
* NET 593 = mum[2]
* NET 594 = not_mum[2]
* NET 595 = rst
* NET 598 = mum[0]
* NET 599 = mum_0_ins.sff_s
* NET 600 = mum_0_ins.y
* NET 602 = mum_0_ins.sff_m
* NET 603 = no2_x1_9_sig
* NET 604 = clk
* NET 606 = mum_0_ins.u
* NET 607 = mum_0_ins.ckr
* NET 608 = vdd
* NET 609 = mum_0_ins.nckr
Mtr_01214 597 598 608 608 tp L=1U W=10U AS=20P AD=20P PS=24U PD=24U 
Mtr_01213 599 607 597 608 tp L=1U W=10U AS=20P AD=20P PS=24U PD=24U 
Mtr_01212 600 609 599 608 tp L=1U W=10U AS=20P AD=20P PS=24U PD=24U 
Mtr_01211 602 609 601 608 tp L=1U W=10U AS=20P AD=20P PS=24U PD=24U 
Mtr_01210 601 600 608 608 tp L=1U W=10U AS=20P AD=20P PS=24U PD=24U 
Mtr_01209 605 607 602 608 tp L=1U W=10U AS=20P AD=20P PS=24U PD=24U 
Mtr_01208 609 604 608 608 tp L=1U W=10U AS=20P AD=20P PS=24U PD=24U 
Mtr_01207 608 609 607 608 tp L=1U W=10U AS=20P AD=20P PS=24U PD=24U 
Mtr_01206 606 603 608 608 tp L=1U W=10U AS=20P AD=20P PS=24U PD=24U 
Mtr_01205 608 606 605 608 tp L=1U W=10U AS=20P AD=20P PS=24U PD=24U 
Mtr_01204 608 599 598 608 tp L=1U W=20U AS=40P AD=40P PS=44U PD=44U 
Mtr_01203 598 599 608 608 tp L=1U W=20U AS=40P AD=40P PS=44U PD=44U 
Mtr_01202 600 602 608 608 tp L=1U W=10U AS=20P AD=20P PS=24U PD=24U 
Mtr_01201 591 594 590 608 tp L=1U W=15U AS=30P AD=30P PS=34U PD=34U 
Mtr_01200 608 598 591 608 tp L=1U W=15U AS=30P AD=30P PS=34U PD=34U 
Mtr_01199 592 590 608 608 tp L=1U W=20U AS=40P AD=40P PS=44U PD=44U 
Mtr_01198 596 598 603 608 tp L=1U W=20U AS=40P AD=40P PS=44U PD=44U 
Mtr_01197 608 595 596 608 tp L=1U W=20U AS=40P AD=40P PS=44U PD=44U 
Mtr_01196 566 577 608 608 tp L=1U W=10U AS=20P AD=20P PS=24U PD=24U 
Mtr_01195 608 567 568 608 tp L=1U W=10U AS=20P AD=20P PS=24U PD=24U 
Mtr_01194 570 566 569 608 tp L=1U W=20U AS=40P AD=40P PS=44U PD=44U 
Mtr_01193 569 567 608 608 tp L=1U W=20U AS=40P AD=40P PS=44U PD=44U 
Mtr_01192 569 568 570 608 tp L=1U W=20U AS=40P AD=40P PS=44U PD=44U 
Mtr_01191 608 577 569 608 tp L=1U W=20U AS=40P AD=40P PS=44U PD=44U 
Mtr_01190 567 565 608 608 tp L=1U W=20U AS=40P AD=40P PS=44U PD=44U 
Mtr_01189 608 564 565 608 tp L=1U W=6U AS=12P AD=12P PS=16U PD=16U 
Mtr_01188 594 593 608 608 tp L=1U W=15U AS=30P AD=30P PS=34U PD=34U 
Mtr_01187 588 587 608 608 tp L=1U W=20U AS=40P AD=40P PS=44U PD=44U 
Mtr_01186 608 593 587 608 tp L=1U W=6U AS=12P AD=12P PS=16U PD=16U 
Mtr_01185 589 598 608 608 tp L=1U W=15U AS=30P AD=30P PS=34U PD=34U 
Mtr_01184 608 595 575 608 tp L=1U W=20U AS=40P AD=40P PS=44U PD=44U 
Mtr_01183 582 574 575 608 tp L=1U W=20U AS=40P AD=40P PS=44U PD=44U 
Mtr_01182 575 573 582 608 tp L=1U W=20U AS=40P AD=40P PS=44U PD=44U 
Mtr_01181 576 577 608 608 tp L=1U W=10U AS=20P AD=20P PS=24U PD=24U 
Mtr_01180 578 585 576 608 tp L=1U W=10U AS=20P AD=20P PS=24U PD=24U 
Mtr_01179 579 586 578 608 tp L=1U W=10U AS=20P AD=20P PS=24U PD=24U 
Mtr_01178 581 586 580 608 tp L=1U W=10U AS=20P AD=20P PS=24U PD=24U 
Mtr_01177 580 579 608 608 tp L=1U W=10U AS=20P AD=20P PS=24U PD=24U 
Mtr_01176 584 585 581 608 tp L=1U W=10U AS=20P AD=20P PS=24U PD=24U 
Mtr_01175 586 604 608 608 tp L=1U W=10U AS=20P AD=20P PS=24U PD=24U 
Mtr_01174 608 586 585 608 tp L=1U W=10U AS=20P AD=20P PS=24U PD=24U 
Mtr_01173 583 582 608 608 tp L=1U W=10U AS=20P AD=20P PS=24U PD=24U 
Mtr_01172 608 583 584 608 tp L=1U W=10U AS=20P AD=20P PS=24U PD=24U 
Mtr_01171 608 578 577 608 tp L=1U W=20U AS=40P AD=40P PS=44U PD=44U 
Mtr_01170 577 578 608 608 tp L=1U W=20U AS=40P AD=40P PS=44U PD=44U 
Mtr_01169 579 581 608 608 tp L=1U W=10U AS=20P AD=20P PS=24U PD=24U 
Mtr_01168 563 562 608 608 tp L=1U W=20U AS=40P AD=40P PS=44U PD=44U 
Mtr_01167 608 598 562 608 tp L=1U W=6U AS=12P AD=12P PS=16U PD=16U 
Mtr_01166 608 570 574 608 tp L=1U W=10U AS=20P AD=20P PS=24U PD=24U 
Mtr_01165 574 572 608 608 tp L=1U W=10U AS=20P AD=20P PS=24U PD=24U 
Mtr_01164 608 571 572 608 tp L=1U W=10U AS=20P AD=20P PS=24U PD=24U 
Mtr_01163 518 517 608 608 tp L=1U W=10U AS=20P AD=20P PS=24U PD=24U 
Mtr_01162 608 538 524 608 tp L=1U W=10U AS=20P AD=20P PS=24U PD=24U 
Mtr_01161 521 518 488 608 tp L=1U W=20U AS=40P AD=40P PS=44U PD=44U 
Mtr_01160 488 538 608 608 tp L=1U W=20U AS=40P AD=40P PS=44U PD=44U 
Mtr_01159 488 524 521 608 tp L=1U W=20U AS=40P AD=40P PS=44U PD=44U 
Mtr_01158 608 517 488 608 tp L=1U W=20U AS=40P AD=40P PS=44U PD=44U 
Mtr_01157 608 542 546 608 tp L=1U W=10U AS=20P AD=20P PS=24U PD=24U 
Mtr_01156 546 543 608 608 tp L=1U W=10U AS=20P AD=20P PS=24U PD=24U 
Mtr_01155 608 589 543 608 tp L=1U W=10U AS=20P AD=20P PS=24U PD=24U 
Mtr_01154 494 593 608 608 tp L=1U W=10U AS=20P AD=20P PS=24U PD=24U 
Mtr_01153 552 558 494 608 tp L=1U W=10U AS=20P AD=20P PS=24U PD=24U 
Mtr_01152 553 559 552 608 tp L=1U W=10U AS=20P AD=20P PS=24U PD=24U 
Mtr_01151 551 559 495 608 tp L=1U W=10U AS=20P AD=20P PS=24U PD=24U 
Mtr_01150 495 553 608 608 tp L=1U W=10U AS=20P AD=20P PS=24U PD=24U 
Mtr_01149 496 558 551 608 tp L=1U W=10U AS=20P AD=20P PS=24U PD=24U 
Mtr_01148 559 604 608 608 tp L=1U W=10U AS=20P AD=20P PS=24U PD=24U 
Mtr_01147 608 559 558 608 tp L=1U W=10U AS=20P AD=20P PS=24U PD=24U 
Mtr_01146 557 555 608 608 tp L=1U W=10U AS=20P AD=20P PS=24U PD=24U 
Mtr_01145 608 557 496 608 tp L=1U W=10U AS=20P AD=20P PS=24U PD=24U 
Mtr_01144 608 552 593 608 tp L=1U W=20U AS=40P AD=40P PS=44U PD=44U 
Mtr_01143 593 552 608 608 tp L=1U W=20U AS=40P AD=40P PS=44U PD=44U 
Mtr_01142 553 551 608 608 tp L=1U W=10U AS=20P AD=20P PS=24U PD=24U 
Mtr_01141 540 538 608 608 tp L=1U W=10U AS=20P AD=20P PS=24U PD=24U 
Mtr_01140 608 593 545 608 tp L=1U W=10U AS=20P AD=20P PS=24U PD=24U 
Mtr_01139 542 540 492 608 tp L=1U W=20U AS=40P AD=40P PS=44U PD=44U 
Mtr_01138 492 593 608 608 tp L=1U W=20U AS=40P AD=40P PS=44U PD=44U 
Mtr_01137 492 545 542 608 tp L=1U W=20U AS=40P AD=40P PS=44U PD=44U 
Mtr_01136 608 538 492 608 tp L=1U W=20U AS=40P AD=40P PS=44U PD=44U 
Mtr_01135 608 595 493 608 tp L=1U W=20U AS=40P AD=40P PS=44U PD=44U 
Mtr_01134 555 546 493 608 tp L=1U W=20U AS=40P AD=40P PS=44U PD=44U 
Mtr_01133 493 592 555 608 tp L=1U W=20U AS=40P AD=40P PS=44U PD=44U 
Mtr_01132 490 530 531 608 tp L=1U W=15U AS=30P AD=30P PS=34U PD=34U 
Mtr_01131 608 598 490 608 tp L=1U W=15U AS=30P AD=30P PS=34U PD=34U 
Mtr_01130 532 531 608 608 tp L=1U W=20U AS=40P AD=40P PS=44U PD=44U 
Mtr_01129 499 500 608 608 tp L=1U W=20U AS=40P AD=40P PS=44U PD=44U 
Mtr_01128 608 538 500 608 tp L=1U W=6U AS=12P AD=12P PS=16U PD=16U 
Mtr_01127 608 521 534 608 tp L=1U W=10U AS=20P AD=20P PS=24U PD=24U 
Mtr_01126 534 522 608 608 tp L=1U W=10U AS=20P AD=20P PS=24U PD=24U 
Mtr_01125 608 594 522 608 tp L=1U W=10U AS=20P AD=20P PS=24U PD=24U 
Mtr_01124 608 595 489 608 tp L=1U W=20U AS=40P AD=40P PS=44U PD=44U 
Mtr_01123 527 537 489 608 tp L=1U W=20U AS=40P AD=40P PS=44U PD=44U 
Mtr_01122 489 532 527 608 tp L=1U W=20U AS=40P AD=40P PS=44U PD=44U 
Mtr_01121 608 536 537 608 tp L=1U W=20U AS=40P AD=40P PS=44U PD=44U 
Mtr_01120 491 589 608 608 tp L=1U W=10U AS=20P AD=20P PS=24U PD=24U 
Mtr_01119 491 533 536 608 tp L=1U W=10U AS=20P AD=20P PS=24U PD=24U 
Mtr_01118 536 534 491 608 tp L=1U W=10U AS=20P AD=20P PS=24U PD=24U 
Mtr_01117 513 571 608 608 tp L=1U W=15U AS=30P AD=30P PS=34U PD=34U 
Mtr_01116 497 498 608 608 tp L=1U W=20U AS=40P AD=40P PS=44U PD=44U 
Mtr_01115 608 517 498 608 tp L=1U W=6U AS=12P AD=12P PS=16U PD=16U 
Mtr_01114 484 517 608 608 tp L=1U W=10U AS=20P AD=20P PS=24U PD=24U 
Mtr_01113 503 510 484 608 tp L=1U W=10U AS=20P AD=20P PS=24U PD=24U 
Mtr_01112 502 511 503 608 tp L=1U W=10U AS=20P AD=20P PS=24U PD=24U 
Mtr_01111 507 511 486 608 tp L=1U W=10U AS=20P AD=20P PS=24U PD=24U 
Mtr_01110 486 502 608 608 tp L=1U W=10U AS=20P AD=20P PS=24U PD=24U 
Mtr_01109 485 510 507 608 tp L=1U W=10U AS=20P AD=20P PS=24U PD=24U 
Mtr_01108 511 604 608 608 tp L=1U W=10U AS=20P AD=20P PS=24U PD=24U 
Mtr_01107 608 511 510 608 tp L=1U W=10U AS=20P AD=20P PS=24U PD=24U 
Mtr_01106 505 527 608 608 tp L=1U W=10U AS=20P AD=20P PS=24U PD=24U 
Mtr_01105 608 505 485 608 tp L=1U W=10U AS=20P AD=20P PS=24U PD=24U 
Mtr_01104 608 503 517 608 tp L=1U W=20U AS=40P AD=40P PS=44U PD=44U 
Mtr_01103 517 503 608 608 tp L=1U W=20U AS=40P AD=40P PS=44U PD=44U 
Mtr_01102 502 507 608 608 tp L=1U W=10U AS=20P AD=20P PS=24U PD=24U 
Mtr_01101 487 514 515 608 tp L=1U W=15U AS=30P AD=30P PS=34U PD=34U 
Mtr_01100 608 513 487 608 tp L=1U W=15U AS=30P AD=30P PS=34U PD=34U 
Mtr_01099 573 515 608 608 tp L=1U W=20U AS=40P AD=40P PS=44U PD=44U 
Mtr_01098 514 577 608 608 tp L=1U W=15U AS=30P AD=30P PS=34U PD=34U 
Mtr_01097 608 593 480 608 tp L=1U W=20U AS=40P AD=40P PS=44U PD=44U 
Mtr_01096 481 538 482 608 tp L=1U W=20U AS=40P AD=40P PS=44U PD=44U 
Mtr_01095 482 530 483 608 tp L=1U W=20U AS=40P AD=40P PS=44U PD=44U 
Mtr_01094 480 589 481 608 tp L=1U W=20U AS=40P AD=40P PS=44U PD=44U 
Mtr_01093 608 530 476 608 tp L=1U W=15U AS=30P AD=30P PS=34U PD=34U 
Mtr_01092 476 593 477 608 tp L=1U W=15U AS=30P AD=30P PS=34U PD=34U 
Mtr_01091 477 479 478 608 tp L=1U W=15U AS=30P AD=30P PS=34U PD=34U 
Mtr_01090 533 478 608 608 tp L=1U W=20U AS=40P AD=40P PS=44U PD=44U 
Mtr_01089 538 464 608 608 tp L=1U W=20U AS=40P AD=40P PS=44U PD=44U 
Mtr_01088 608 462 464 608 tp L=1U W=6U AS=12P AD=12P PS=16U PD=16U 
Mtr_01087 479 538 608 608 tp L=1U W=15U AS=30P AD=30P PS=34U PD=34U 
Mtr_01086 474 479 475 608 tp L=1U W=15U AS=30P AD=30P PS=34U PD=34U 
Mtr_01085 608 598 474 608 tp L=1U W=15U AS=30P AD=30P PS=34U PD=34U 
Mtr_01084 473 475 608 608 tp L=1U W=20U AS=40P AD=40P PS=44U PD=44U 
Mtr_01083 466 465 608 608 tp L=1U W=20U AS=40P AD=40P PS=44U PD=44U 
Mtr_01082 608 594 465 608 tp L=1U W=10U AS=20P AD=20P PS=24U PD=24U 
Mtr_01081 465 517 608 608 tp L=1U W=10U AS=20P AD=20P PS=24U PD=24U 
Mtr_01080 608 595 472 608 tp L=1U W=20U AS=40P AD=40P PS=44U PD=44U 
Mtr_01079 471 470 472 608 tp L=1U W=20U AS=40P AD=40P PS=44U PD=44U 
Mtr_01078 472 473 471 608 tp L=1U W=20U AS=40P AD=40P PS=44U PD=44U 
Mtr_01077 608 466 467 608 tp L=1U W=15U AS=30P AD=30P PS=34U PD=34U 
Mtr_01076 467 538 469 608 tp L=1U W=15U AS=30P AD=30P PS=34U PD=34U 
Mtr_01075 469 589 468 608 tp L=1U W=15U AS=30P AD=30P PS=34U PD=34U 
Mtr_01074 470 468 608 608 tp L=1U W=20U AS=40P AD=40P PS=44U PD=44U 
Mtr_01073 608 449 451 608 tp L=1U W=10U AS=20P AD=20P PS=24U PD=24U 
Mtr_01072 451 453 608 608 tp L=1U W=10U AS=20P AD=20P PS=24U PD=24U 
Mtr_01071 608 595 453 608 tp L=1U W=10U AS=20P AD=20P PS=24U PD=24U 
Mtr_01070 454 462 608 608 tp L=1U W=10U AS=20P AD=20P PS=24U PD=24U 
Mtr_01069 455 461 454 608 tp L=1U W=10U AS=20P AD=20P PS=24U PD=24U 
Mtr_01068 456 463 455 608 tp L=1U W=10U AS=20P AD=20P PS=24U PD=24U 
Mtr_01067 458 463 457 608 tp L=1U W=10U AS=20P AD=20P PS=24U PD=24U 
Mtr_01066 457 456 608 608 tp L=1U W=10U AS=20P AD=20P PS=24U PD=24U 
Mtr_01065 460 461 458 608 tp L=1U W=10U AS=20P AD=20P PS=24U PD=24U 
Mtr_01064 463 604 608 608 tp L=1U W=10U AS=20P AD=20P PS=24U PD=24U 
Mtr_01063 608 463 461 608 tp L=1U W=10U AS=20P AD=20P PS=24U PD=24U 
Mtr_01062 459 471 608 608 tp L=1U W=10U AS=20P AD=20P PS=24U PD=24U 
Mtr_01061 608 459 460 608 tp L=1U W=10U AS=20P AD=20P PS=24U PD=24U 
Mtr_01060 608 455 462 608 tp L=1U W=20U AS=40P AD=40P PS=44U PD=44U 
Mtr_01059 462 455 608 608 tp L=1U W=20U AS=40P AD=40P PS=44U PD=44U 
Mtr_01058 456 458 608 608 tp L=1U W=10U AS=20P AD=20P PS=24U PD=24U 
Mtr_01057 437 435 608 608 tp L=1U W=10U AS=20P AD=20P PS=24U PD=24U 
Mtr_01056 436 444 437 608 tp L=1U W=10U AS=20P AD=20P PS=24U PD=24U 
Mtr_01055 438 445 436 608 tp L=1U W=10U AS=20P AD=20P PS=24U PD=24U 
Mtr_01054 440 445 439 608 tp L=1U W=10U AS=20P AD=20P PS=24U PD=24U 
Mtr_01053 439 438 608 608 tp L=1U W=10U AS=20P AD=20P PS=24U PD=24U 
Mtr_01052 441 444 440 608 tp L=1U W=10U AS=20P AD=20P PS=24U PD=24U 
Mtr_01051 445 604 608 608 tp L=1U W=10U AS=20P AD=20P PS=24U PD=24U 
Mtr_01050 608 445 444 608 tp L=1U W=10U AS=20P AD=20P PS=24U PD=24U 
Mtr_01049 443 450 608 608 tp L=1U W=10U AS=20P AD=20P PS=24U PD=24U 
Mtr_01048 608 443 441 608 tp L=1U W=10U AS=20P AD=20P PS=24U PD=24U 
Mtr_01047 608 436 435 608 tp L=1U W=20U AS=40P AD=40P PS=44U PD=44U 
Mtr_01046 435 436 608 608 tp L=1U W=20U AS=40P AD=40P PS=44U PD=44U 
Mtr_01045 438 440 608 608 tp L=1U W=10U AS=20P AD=20P PS=24U PD=24U 
Mtr_01044 432 430 608 608 tp L=1U W=20U AS=40P AD=40P PS=44U PD=44U 
Mtr_01043 608 429 430 608 tp L=1U W=6U AS=12P AD=12P PS=16U PD=16U 
Mtr_01042 608 451 452 608 tp L=1U W=20U AS=40P AD=40P PS=44U PD=44U 
Mtr_01041 450 447 452 608 tp L=1U W=20U AS=40P AD=40P PS=44U PD=44U 
Mtr_01040 452 448 450 608 tp L=1U W=20U AS=40P AD=40P PS=44U PD=44U 
Mtr_01039 431 435 608 608 tp L=1U W=10U AS=20P AD=20P PS=24U PD=24U 
Mtr_01038 608 432 433 608 tp L=1U W=10U AS=20P AD=20P PS=24U PD=24U 
Mtr_01037 442 431 434 608 tp L=1U W=20U AS=40P AD=40P PS=44U PD=44U 
Mtr_01036 434 432 608 608 tp L=1U W=20U AS=40P AD=40P PS=44U PD=44U 
Mtr_01035 434 433 442 608 tp L=1U W=20U AS=40P AD=40P PS=44U PD=44U 
Mtr_01034 608 435 434 608 tp L=1U W=20U AS=40P AD=40P PS=44U PD=44U 
Mtr_01033 608 442 447 608 tp L=1U W=10U AS=20P AD=20P PS=24U PD=24U 
Mtr_01032 447 446 608 608 tp L=1U W=10U AS=20P AD=20P PS=24U PD=24U 
Mtr_01031 608 571 446 608 tp L=1U W=10U AS=20P AD=20P PS=24U PD=24U 
Mtr_01030 608 423 383 608 tp L=1U W=20U AS=40P AD=40P PS=44U PD=44U 
Mtr_01029 383 424 426 608 tp L=1U W=20U AS=40P AD=40P PS=44U PD=44U 
Mtr_01028 383 483 608 608 tp L=1U W=20U AS=40P AD=40P PS=44U PD=44U 
Mtr_01027 426 425 383 608 tp L=1U W=20U AS=40P AD=40P PS=44U PD=44U 
Mtr_01026 608 483 424 608 tp L=1U W=10U AS=20P AD=20P PS=24U PD=24U 
Mtr_01025 423 425 608 608 tp L=1U W=10U AS=20P AD=20P PS=24U PD=24U 
Mtr_01024 378 425 608 608 tp L=1U W=10U AS=20P AD=20P PS=24U PD=24U 
Mtr_01023 413 415 378 608 tp L=1U W=10U AS=20P AD=20P PS=24U PD=24U 
Mtr_01022 418 421 413 608 tp L=1U W=10U AS=20P AD=20P PS=24U PD=24U 
Mtr_01021 416 421 377 608 tp L=1U W=10U AS=20P AD=20P PS=24U PD=24U 
Mtr_01020 377 418 608 608 tp L=1U W=10U AS=20P AD=20P PS=24U PD=24U 
Mtr_01019 380 415 416 608 tp L=1U W=10U AS=20P AD=20P PS=24U PD=24U 
Mtr_01018 421 604 608 608 tp L=1U W=10U AS=20P AD=20P PS=24U PD=24U 
Mtr_01017 608 421 415 608 tp L=1U W=10U AS=20P AD=20P PS=24U PD=24U 
Mtr_01016 419 420 608 608 tp L=1U W=10U AS=20P AD=20P PS=24U PD=24U 
Mtr_01015 608 419 380 608 tp L=1U W=10U AS=20P AD=20P PS=24U PD=24U 
Mtr_01014 608 413 425 608 tp L=1U W=20U AS=40P AD=40P PS=44U PD=44U 
Mtr_01013 425 413 608 608 tp L=1U W=20U AS=40P AD=40P PS=44U PD=44U 
Mtr_01012 418 416 608 608 tp L=1U W=10U AS=20P AD=20P PS=24U PD=24U 
Mtr_01011 530 517 608 608 tp L=1U W=15U AS=30P AD=30P PS=34U PD=34U 
Mtr_01010 382 426 420 608 tp L=1U W=20U AS=40P AD=40P PS=44U PD=44U 
Mtr_01009 608 595 382 608 tp L=1U W=20U AS=40P AD=40P PS=44U PD=44U 
Mtr_01008 375 462 376 608 tp L=1U W=20U AS=40P AD=40P PS=44U PD=44U 
Mtr_01007 608 412 375 608 tp L=1U W=20U AS=40P AD=40P PS=44U PD=44U 
Mtr_01006 408 405 608 608 tp L=1U W=20U AS=40P AD=40P PS=44U PD=44U 
Mtr_01005 608 425 405 608 tp L=1U W=6U AS=12P AD=12P PS=16U PD=16U 
Mtr_01004 372 400 398 608 tp L=1U W=15U AS=30P AD=30P PS=34U PD=34U 
Mtr_01003 608 513 372 608 tp L=1U W=15U AS=30P AD=30P PS=34U PD=34U 
Mtr_01002 448 398 608 608 tp L=1U W=20U AS=40P AD=40P PS=44U PD=44U 
Mtr_01001 608 577 373 608 tp L=1U W=15U AS=30P AD=30P PS=34U PD=34U 
Mtr_01000 373 407 374 608 tp L=1U W=15U AS=30P AD=30P PS=34U PD=34U 
Mtr_00999 374 404 401 608 tp L=1U W=15U AS=30P AD=30P PS=34U PD=34U 
Mtr_00998 449 401 608 608 tp L=1U W=20U AS=40P AD=40P PS=44U PD=44U 
Mtr_00997 384 564 608 608 tp L=1U W=15U AS=30P AD=30P PS=34U PD=34U 
Mtr_00996 407 406 608 608 tp L=1U W=20U AS=40P AD=40P PS=44U PD=44U 
Mtr_00995 608 384 406 608 tp L=1U W=6U AS=12P AD=12P PS=16U PD=16U 
Mtr_00994 395 385 608 608 tp L=1U W=20U AS=40P AD=40P PS=44U PD=44U 
Mtr_00993 385 514 608 608 tp L=1U W=10U AS=20P AD=20P PS=24U PD=24U 
Mtr_00992 608 435 385 608 tp L=1U W=10U AS=20P AD=20P PS=24U PD=24U 
Mtr_00991 385 390 608 608 tp L=1U W=10U AS=20P AD=20P PS=24U PD=24U 
Mtr_00990 608 388 385 608 tp L=1U W=10U AS=20P AD=20P PS=24U PD=24U 
Mtr_00989 397 391 608 608 tp L=1U W=20U AS=40P AD=40P PS=44U PD=44U 
Mtr_00988 608 390 391 608 tp L=1U W=10U AS=20P AD=20P PS=24U PD=24U 
Mtr_00987 391 513 608 608 tp L=1U W=10U AS=20P AD=20P PS=24U PD=24U 
Mtr_00986 364 384 429 608 tp L=1U W=20U AS=40P AD=40P PS=44U PD=44U 
Mtr_00985 608 514 364 608 tp L=1U W=20U AS=40P AD=40P PS=44U PD=44U 
Mtr_00984 388 404 608 608 tp L=1U W=15U AS=30P AD=30P PS=34U PD=34U 
Mtr_00983 608 397 368 608 tp L=1U W=20U AS=40P AD=40P PS=44U PD=44U 
Mtr_00982 370 396 369 608 tp L=1U W=20U AS=40P AD=40P PS=44U PD=44U 
Mtr_00981 369 595 371 608 tp L=1U W=20U AS=40P AD=40P PS=44U PD=44U 
Mtr_00980 368 395 370 608 tp L=1U W=20U AS=40P AD=40P PS=44U PD=44U 
Mtr_00979 351 362 608 608 tp L=1U W=10U AS=20P AD=20P PS=24U PD=24U 
Mtr_00978 608 351 350 608 tp L=1U W=20U AS=40P AD=40P PS=44U PD=44U 
Mtr_00977 350 353 352 608 tp L=1U W=20U AS=40P AD=40P PS=44U PD=44U 
Mtr_00976 355 354 357 608 tp L=1U W=20U AS=40P AD=40P PS=44U PD=44U 
Mtr_00975 608 530 355 608 tp L=1U W=20U AS=40P AD=40P PS=44U PD=44U 
Mtr_00974 354 376 608 608 tp L=1U W=15U AS=30P AD=30P PS=34U PD=34U 
Mtr_00973 608 358 360 608 tp L=1U W=20U AS=40P AD=40P PS=44U PD=44U 
Mtr_00972 359 589 362 608 tp L=1U W=20U AS=40P AD=40P PS=44U PD=44U 
Mtr_00971 360 361 359 608 tp L=1U W=20U AS=40P AD=40P PS=44U PD=44U 
Mtr_00970 353 356 608 608 tp L=1U W=20U AS=40P AD=40P PS=44U PD=44U 
Mtr_00969 608 354 356 608 tp L=1U W=6U AS=12P AD=12P PS=16U PD=16U 
Mtr_00968 361 425 608 608 tp L=1U W=15U AS=30P AD=30P PS=34U PD=34U 
Mtr_00967 608 466 349 608 tp L=1U W=10U AS=20P AD=20P PS=24U PD=24U 
Mtr_00966 349 362 608 608 tp L=1U W=10U AS=20P AD=20P PS=24U PD=24U 
Mtr_00965 349 376 608 608 tp L=1U W=10U AS=20P AD=20P PS=24U PD=24U 
Mtr_00964 608 332 331 608 tp L=1U W=10U AS=20P AD=20P PS=24U PD=24U 
Mtr_00963 331 330 608 608 tp L=1U W=10U AS=20P AD=20P PS=24U PD=24U 
Mtr_00962 608 376 331 608 tp L=1U W=10U AS=20P AD=20P PS=24U PD=24U 
Mtr_00961 331 425 608 608 tp L=1U W=10U AS=20P AD=20P PS=24U PD=24U 
Mtr_00960 339 338 608 608 tp L=1U W=10U AS=20P AD=20P PS=24U PD=24U 
Mtr_00959 340 347 339 608 tp L=1U W=10U AS=20P AD=20P PS=24U PD=24U 
Mtr_00958 341 348 340 608 tp L=1U W=10U AS=20P AD=20P PS=24U PD=24U 
Mtr_00957 343 348 342 608 tp L=1U W=10U AS=20P AD=20P PS=24U PD=24U 
Mtr_00956 342 341 608 608 tp L=1U W=10U AS=20P AD=20P PS=24U PD=24U 
Mtr_00955 346 347 343 608 tp L=1U W=10U AS=20P AD=20P PS=24U PD=24U 
Mtr_00954 348 604 608 608 tp L=1U W=10U AS=20P AD=20P PS=24U PD=24U 
Mtr_00953 608 348 347 608 tp L=1U W=10U AS=20P AD=20P PS=24U PD=24U 
Mtr_00952 345 344 608 608 tp L=1U W=10U AS=20P AD=20P PS=24U PD=24U 
Mtr_00951 608 345 346 608 tp L=1U W=10U AS=20P AD=20P PS=24U PD=24U 
Mtr_00950 608 340 338 608 tp L=1U W=20U AS=40P AD=40P PS=44U PD=44U 
Mtr_00949 338 340 608 608 tp L=1U W=20U AS=40P AD=40P PS=44U PD=44U 
Mtr_00948 341 343 608 608 tp L=1U W=10U AS=20P AD=20P PS=24U PD=24U 
Mtr_00947 608 336 344 608 tp L=1U W=20U AS=40P AD=40P PS=44U PD=44U 
Mtr_00946 336 371 608 608 tp L=1U W=10U AS=20P AD=20P PS=24U PD=24U 
Mtr_00945 608 335 337 608 tp L=1U W=10U AS=20P AD=20P PS=24U PD=24U 
Mtr_00944 337 349 336 608 tp L=1U W=10U AS=20P AD=20P PS=24U PD=24U 
Mtr_00943 608 338 332 608 tp L=1U W=14U AS=28P AD=28P PS=32U PD=32U 
Mtr_00942 332 338 608 608 tp L=1U W=20U AS=40P AD=40P PS=44U PD=44U 
Mtr_00941 324 325 608 608 tp L=1U W=20U AS=40P AD=40P PS=44U PD=44U 
Mtr_00940 608 330 325 608 tp L=1U W=6U AS=12P AD=12P PS=16U PD=16U 
Mtr_00939 329 598 608 608 tp L=1U W=10U AS=20P AD=20P PS=24U PD=24U 
Mtr_00938 608 594 329 608 tp L=1U W=10U AS=20P AD=20P PS=24U PD=24U 
Mtr_00937 608 326 328 608 tp L=1U W=20U AS=40P AD=40P PS=44U PD=44U 
Mtr_00936 327 331 564 608 tp L=1U W=20U AS=40P AD=40P PS=44U PD=44U 
Mtr_00935 328 329 327 608 tp L=1U W=20U AS=40P AD=40P PS=44U PD=44U 
Mtr_00934 334 349 608 608 tp L=1U W=10U AS=20P AD=20P PS=24U PD=24U 
Mtr_00933 608 334 333 608 tp L=1U W=20U AS=40P AD=40P PS=44U PD=44U 
Mtr_00932 333 338 396 608 tp L=1U W=20U AS=40P AD=40P PS=44U PD=44U 
Mtr_00931 320 322 608 608 tp L=1U W=10U AS=20P AD=20P PS=24U PD=24U 
Mtr_00930 608 323 321 608 tp L=1U W=10U AS=20P AD=20P PS=24U PD=24U 
Mtr_00929 296 320 293 608 tp L=1U W=20U AS=40P AD=40P PS=44U PD=44U 
Mtr_00928 293 323 608 608 tp L=1U W=20U AS=40P AD=40P PS=44U PD=44U 
Mtr_00927 293 321 296 608 tp L=1U W=20U AS=40P AD=40P PS=44U PD=44U 
Mtr_00926 608 322 293 608 tp L=1U W=20U AS=40P AD=40P PS=44U PD=44U 
Mtr_00925 608 338 286 608 tp L=1U W=10U AS=20P AD=20P PS=24U PD=24U 
Mtr_00924 286 517 608 608 tp L=1U W=10U AS=20P AD=20P PS=24U PD=24U 
Mtr_00923 608 352 286 608 tp L=1U W=10U AS=20P AD=20P PS=24U PD=24U 
Mtr_00922 286 323 608 608 tp L=1U W=10U AS=20P AD=20P PS=24U PD=24U 
Mtr_00921 289 318 608 608 tp L=1U W=20U AS=40P AD=40P PS=44U PD=44U 
Mtr_00920 318 357 608 608 tp L=1U W=10U AS=20P AD=20P PS=24U PD=24U 
Mtr_00919 608 598 318 608 tp L=1U W=10U AS=20P AD=20P PS=24U PD=24U 
Mtr_00918 318 594 608 608 tp L=1U W=10U AS=20P AD=20P PS=24U PD=24U 
Mtr_00917 608 425 318 608 tp L=1U W=10U AS=20P AD=20P PS=24U PD=24U 
Mtr_00916 284 286 315 608 tp L=1U W=20U AS=40P AD=40P PS=44U PD=44U 
Mtr_00915 608 593 284 608 tp L=1U W=20U AS=40P AD=40P PS=44U PD=44U 
Mtr_00914 322 319 608 608 tp L=1U W=20U AS=40P AD=40P PS=44U PD=44U 
Mtr_00913 608 357 319 608 tp L=1U W=6U AS=12P AD=12P PS=16U PD=16U 
Mtr_00912 311 314 608 608 tp L=1U W=10U AS=20P AD=20P PS=24U PD=24U 
Mtr_00911 608 315 312 608 tp L=1U W=10U AS=20P AD=20P PS=24U PD=24U 
Mtr_00910 283 311 281 608 tp L=1U W=20U AS=40P AD=40P PS=44U PD=44U 
Mtr_00909 281 315 608 608 tp L=1U W=20U AS=40P AD=40P PS=44U PD=44U 
Mtr_00908 281 312 283 608 tp L=1U W=20U AS=40P AD=40P PS=44U PD=44U 
Mtr_00907 608 314 281 608 tp L=1U W=20U AS=40P AD=40P PS=44U PD=44U 
Mtr_00906 608 283 307 608 tp L=1U W=10U AS=20P AD=20P PS=24U PD=24U 
Mtr_00905 307 279 608 608 tp L=1U W=10U AS=20P AD=20P PS=24U PD=24U 
Mtr_00904 608 305 279 608 tp L=1U W=10U AS=20P AD=20P PS=24U PD=24U 
Mtr_00903 608 595 275 608 tp L=1U W=20U AS=40P AD=40P PS=44U PD=44U 
Mtr_00902 276 307 275 608 tp L=1U W=20U AS=40P AD=40P PS=44U PD=44U 
Mtr_00901 275 308 276 608 tp L=1U W=20U AS=40P AD=40P PS=44U PD=44U 
Mtr_00900 608 330 300 608 tp L=1U W=10U AS=20P AD=20P PS=24U PD=24U 
Mtr_00899 268 300 608 608 tp L=1U W=20U AS=40P AD=40P PS=44U PD=44U 
Mtr_00898 608 271 300 608 tp L=1U W=10U AS=20P AD=20P PS=24U PD=24U 
Mtr_00897 300 425 608 608 tp L=1U W=10U AS=20P AD=20P PS=24U PD=24U 
Mtr_00896 608 407 308 608 tp L=1U W=10U AS=20P AD=20P PS=24U PD=24U 
Mtr_00895 308 305 608 608 tp L=1U W=10U AS=20P AD=20P PS=24U PD=24U 
Mtr_00894 308 314 608 608 tp L=1U W=10U AS=20P AD=20P PS=24U PD=24U 
Mtr_00893 608 517 326 608 tp L=1U W=10U AS=20P AD=20P PS=24U PD=24U 
Mtr_00892 326 297 608 608 tp L=1U W=10U AS=20P AD=20P PS=24U PD=24U 
Mtr_00891 326 323 608 608 tp L=1U W=10U AS=20P AD=20P PS=24U PD=24U 
Mtr_00890 271 304 608 608 tp L=1U W=20U AS=40P AD=40P PS=44U PD=44U 
Mtr_00889 608 332 304 608 tp L=1U W=10U AS=20P AD=20P PS=24U PD=24U 
Mtr_00888 304 323 608 608 tp L=1U W=10U AS=20P AD=20P PS=24U PD=24U 
Mtr_00887 261 429 608 608 tp L=1U W=15U AS=30P AD=30P PS=34U PD=34U 
Mtr_00886 571 314 608 608 tp L=1U W=10U AS=20P AD=20P PS=24U PD=24U 
Mtr_00885 608 305 571 608 tp L=1U W=10U AS=20P AD=20P PS=24U PD=24U 
Mtr_00884 390 298 608 608 tp L=1U W=20U AS=40P AD=40P PS=44U PD=44U 
Mtr_00883 298 268 608 608 tp L=1U W=10U AS=20P AD=20P PS=24U PD=24U 
Mtr_00882 608 297 298 608 tp L=1U W=10U AS=20P AD=20P PS=24U PD=24U 
Mtr_00881 298 594 608 608 tp L=1U W=10U AS=20P AD=20P PS=24U PD=24U 
Mtr_00880 608 598 298 608 tp L=1U W=10U AS=20P AD=20P PS=24U PD=24U 
Mtr_00879 257 483 608 608 tp L=1U W=10U AS=20P AD=20P PS=24U PD=24U 
Mtr_00878 608 257 259 608 tp L=1U W=20U AS=40P AD=40P PS=44U PD=44U 
Mtr_00877 259 361 258 608 tp L=1U W=20U AS=40P AD=40P PS=44U PD=44U 
Mtr_00876 248 250 608 608 tp L=1U W=10U AS=20P AD=20P PS=24U PD=24U 
Mtr_00875 608 296 248 608 tp L=1U W=10U AS=20P AD=20P PS=24U PD=24U 
Mtr_00874 608 361 253 608 tp L=1U W=20U AS=40P AD=40P PS=44U PD=44U 