* Spice description of mul4b_cougar
* Spice driver version -1209401692
* Date ( dd/mm/yyyy hh:mm:ss ):  4/11/2020 at 11:13:59

* INTERF vdd vss x[0] x[1] x[2] x[3] y[0] y[1] y[2] y[3] z[0] z[1] z[2] z[3] 
* INTERF z[4] z[5] z[6] z[7] 


.subckt mul4b_cougar vdd vss x[0] x[1] x[2] x[3] y[0] y[1] y[2] y[3] z[0] z[1] z[2] z[3] z[4] z[5] z[6] z[7] 
Mtr_00712 u0.x1 sig3 vdd vdd tp L=1U W=20U AS=40P AD=40P PS=44U PD=44U 
Mtr_00711 vdd y[0] sig3 vdd tp L=1U W=10U AS=20P AD=20P PS=24U PD=24U 
Mtr_00710 sig3 x[0] vdd vdd tp L=1U W=10U AS=20P AD=20P PS=24U PD=24U 
Mtr_00709 sig16 rtl_map_6 vdd vdd tp L=1U W=10U AS=20P AD=20P PS=24U PD=24U 
Mtr_00708 vdd rtl_map_7 sig13 vdd tp L=1U W=10U AS=20P AD=20P PS=24U PD=24U 
Mtr_00707 u0.y0.xr2_x1_sig sig16 sig14 vdd tp L=1U W=20U AS=40P AD=40P PS=44U PD=44U 
Mtr_00706 sig14 rtl_map_7 vdd vdd tp L=1U W=20U AS=40P AD=40P PS=44U PD=44U 
Mtr_00705 sig14 sig13 u0.y0.xr2_x1_sig vdd tp L=1U W=20U AS=40P AD=40P PS=44U PD=44U 
Mtr_00704 vdd rtl_map_6 sig14 vdd tp L=1U W=20U AS=40P AD=40P PS=44U PD=44U 
Mtr_00703 cx[0] sig8 vdd vdd tp L=1U W=20U AS=40P AD=40P PS=44U PD=44U 
Mtr_00702 sig9 rtl_map_7 sig7 vdd tp L=1U W=20U AS=40P AD=40P PS=44U PD=44U 
Mtr_00701 sig9 rtl_map_6 vdd vdd tp L=1U W=14.5U AS=29P AD=29P PS=33U PD=33U 
Mtr_00700 vdd rtl_map_7 sig9 vdd tp L=1U W=14.5U AS=29P AD=29P PS=33U PD=33U 
Mtr_00699 sig7 rtl_map_6 sig8 vdd tp L=1U W=20U AS=40P AD=40P PS=44U PD=44U 
Mtr_00698 sig8 u0.x1 sig9 vdd tp L=1U W=20U AS=40P AD=40P PS=44U PD=44U 
Mtr_00697 sig18 u0.x1 vdd vdd tp L=1U W=10U AS=20P AD=20P PS=24U PD=24U 
Mtr_00696 vdd u0.y0.xr2_x1_sig sig17 vdd tp L=1U W=10U AS=20P AD=20P PS=24U PD=24U 
Mtr_00695 sx[0] sig18 sig19 vdd tp L=1U W=20U AS=40P AD=40P PS=44U PD=44U 
Mtr_00694 sig19 u0.y0.xr2_x1_sig vdd vdd tp L=1U W=20U AS=40P AD=40P PS=44U PD=44U 
Mtr_00693 sig19 sig17 sx[0] vdd tp L=1U W=20U AS=40P AD=40P PS=44U PD=44U 
Mtr_00692 vdd u0.x1 sig19 vdd tp L=1U W=20U AS=40P AD=40P PS=44U PD=44U 
Mtr_00691 z[0] sig21 vdd vdd tp L=1U W=20U AS=40P AD=40P PS=44U PD=44U 
Mtr_00690 vdd sx[0] sig21 vdd tp L=1U W=6U AS=12P AD=12P PS=16U PD=16U 
Mtr_00689 cx[1] sig25 vdd vdd tp L=1U W=20U AS=40P AD=40P PS=44U PD=44U 
Mtr_00688 sig71 rtl_map_5 sig72 vdd tp L=1U W=20U AS=40P AD=40P PS=44U PD=44U 
Mtr_00687 sig71 cx[0] vdd vdd tp L=1U W=14.5U AS=29P AD=29P PS=33U PD=33U 
Mtr_00686 vdd rtl_map_5 sig71 vdd tp L=1U W=14.5U AS=29P AD=29P PS=33U PD=33U 
Mtr_00685 sig72 cx[0] sig25 vdd tp L=1U W=20U AS=40P AD=40P PS=44U PD=44U 
Mtr_00684 sig25 u1.x1 sig71 vdd tp L=1U W=20U AS=40P AD=40P PS=44U PD=44U 
Mtr_00683 sig34 cx[0] vdd vdd tp L=1U W=10U AS=20P AD=20P PS=24U PD=24U 
Mtr_00682 vdd rtl_map_5 sig30 vdd tp L=1U W=10U AS=20P AD=20P PS=24U PD=24U 
Mtr_00681 u1.y0.xr2_x1_sig sig34 sig73 vdd tp L=1U W=20U AS=40P AD=40P PS=44U PD=44U 
Mtr_00680 sig73 rtl_map_5 vdd vdd tp L=1U W=20U AS=40P AD=40P PS=44U PD=44U 
Mtr_00679 sig73 sig30 u1.y0.xr2_x1_sig vdd tp L=1U W=20U AS=40P AD=40P PS=44U PD=44U 
Mtr_00678 vdd cx[0] sig73 vdd tp L=1U W=20U AS=40P AD=40P PS=44U PD=44U 
Mtr_00677 u4.x1 sig56 vdd vdd tp L=1U W=20U AS=40P AD=40P PS=44U PD=44U 
Mtr_00676 vdd y[1] sig56 vdd tp L=1U W=10U AS=20P AD=20P PS=24U PD=24U 
Mtr_00675 sig56 x[0] vdd vdd tp L=1U W=10U AS=20P AD=20P PS=24U PD=24U 
Mtr_00674 sig38 u1.x1 vdd vdd tp L=1U W=10U AS=20P AD=20P PS=24U PD=24U 
Mtr_00673 vdd u1.y0.xr2_x1_sig sig37 vdd tp L=1U W=10U AS=20P AD=20P PS=24U PD=24U 
Mtr_00672 sx[1] sig38 sig74 vdd tp L=1U W=20U AS=40P AD=40P PS=44U PD=44U 
Mtr_00671 sig74 u1.y0.xr2_x1_sig vdd vdd tp L=1U W=20U AS=40P AD=40P PS=44U PD=44U 
Mtr_00670 sig74 sig37 sx[1] vdd tp L=1U W=20U AS=40P AD=40P PS=44U PD=44U 
Mtr_00669 vdd u1.x1 sig74 vdd tp L=1U W=20U AS=40P AD=40P PS=44U PD=44U 
Mtr_00668 sig55 rtl_map_2 vdd vdd tp L=1U W=10U AS=20P AD=20P PS=24U PD=24U 
Mtr_00667 vdd sx[1] sig51 vdd tp L=1U W=10U AS=20P AD=20P PS=24U PD=24U 
Mtr_00666 u4.y0.xr2_x1_sig sig55 sig77 vdd tp L=1U W=20U AS=40P AD=40P PS=44U PD=44U 
Mtr_00665 sig77 sx[1] vdd vdd tp L=1U W=20U AS=40P AD=40P PS=44U PD=44U 
Mtr_00664 sig77 sig51 u4.y0.xr2_x1_sig vdd tp L=1U W=20U AS=40P AD=40P PS=44U PD=44U 
Mtr_00663 vdd rtl_map_2 sig77 vdd tp L=1U W=20U AS=40P AD=40P PS=44U PD=44U 
Mtr_00662 cx[4] sig44 vdd vdd tp L=1U W=20U AS=40P AD=40P PS=44U PD=44U 
Mtr_00661 sig76 sx[1] sig75 vdd tp L=1U W=20U AS=40P AD=40P PS=44U PD=44U 
Mtr_00660 sig76 rtl_map_2 vdd vdd tp L=1U W=14.5U AS=29P AD=29P PS=33U PD=33U 
Mtr_00659 vdd sx[1] sig76 vdd tp L=1U W=14.5U AS=29P AD=29P PS=33U PD=33U 
Mtr_00658 sig75 rtl_map_2 sig44 vdd tp L=1U W=20U AS=40P AD=40P PS=44U PD=44U 
Mtr_00657 sig44 u4.x1 sig76 vdd tp L=1U W=20U AS=40P AD=40P PS=44U PD=44U 
Mtr_00656 sig65 u4.x1 vdd vdd tp L=1U W=10U AS=20P AD=20P PS=24U PD=24U 
Mtr_00655 vdd u4.y0.xr2_x1_sig sig63 vdd tp L=1U W=10U AS=20P AD=20P PS=24U PD=24U 
Mtr_00654 sx[4] sig65 sig78 vdd tp L=1U W=20U AS=40P AD=40P PS=44U PD=44U 
Mtr_00653 sig78 u4.y0.xr2_x1_sig vdd vdd tp L=1U W=20U AS=40P AD=40P PS=44U PD=44U 
Mtr_00652 sig78 sig63 sx[4] vdd tp L=1U W=20U AS=40P AD=40P PS=44U PD=44U 
Mtr_00651 vdd u4.x1 sig78 vdd tp L=1U W=20U AS=40P AD=40P PS=44U PD=44U 
Mtr_00650 z[1] sig66 vdd vdd tp L=1U W=20U AS=40P AD=40P PS=44U PD=44U 
Mtr_00649 vdd sx[4] sig66 vdd tp L=1U W=6U AS=12P AD=12P PS=16U PD=16U 
Mtr_00648 z[2] sig68 vdd vdd tp L=1U W=20U AS=40P AD=40P PS=44U PD=44U 
Mtr_00647 vdd sx[8] sig68 vdd tp L=1U W=6U AS=12P AD=12P PS=16U PD=16U 
Mtr_00646 u1.x1 sig84 vdd vdd tp L=1U W=20U AS=40P AD=40P PS=44U PD=44U 
Mtr_00645 vdd y[0] sig84 vdd tp L=1U W=10U AS=20P AD=20P PS=24U PD=24U 
Mtr_00644 sig84 x[1] vdd vdd tp L=1U W=10U AS=20P AD=20P PS=24U PD=24U 
Mtr_00643 sig82 cx[1] vdd vdd tp L=1U W=10U AS=20P AD=20P PS=24U PD=24U 
Mtr_00642 vdd rtl_map_4 sig79 vdd tp L=1U W=10U AS=20P AD=20P PS=24U PD=24U 
Mtr_00641 u2.y0.xr2_x1_sig sig82 sig80 vdd tp L=1U W=20U AS=40P AD=40P PS=44U PD=44U 
Mtr_00640 sig80 rtl_map_4 vdd vdd tp L=1U W=20U AS=40P AD=40P PS=44U PD=44U 
Mtr_00639 sig80 sig79 u2.y0.xr2_x1_sig vdd tp L=1U W=20U AS=40P AD=40P PS=44U PD=44U 
Mtr_00638 vdd cx[1] sig80 vdd tp L=1U W=20U AS=40P AD=40P PS=44U PD=44U 
Mtr_00637 sig94 u8.x1 vdd vdd tp L=1U W=10U AS=20P AD=20P PS=24U PD=24U 
Mtr_00636 vdd u8.y0.xr2_x1_sig sig92 vdd tp L=1U W=10U AS=20P AD=20P PS=24U PD=24U 
Mtr_00635 sx[8] sig94 sig93 vdd tp L=1U W=20U AS=40P AD=40P PS=44U PD=44U 
Mtr_00634 sig93 u8.y0.xr2_x1_sig vdd vdd tp L=1U W=20U AS=40P AD=40P PS=44U PD=44U 
Mtr_00633 sig93 sig92 sx[8] vdd tp L=1U W=20U AS=40P AD=40P PS=44U PD=44U 
Mtr_00632 vdd u8.x1 sig93 vdd tp L=1U W=20U AS=40P AD=40P PS=44U PD=44U 
Mtr_00631 u8.x1 sig96 vdd vdd tp L=1U W=20U AS=40P AD=40P PS=44U PD=44U 
Mtr_00630 vdd y[2] sig96 vdd tp L=1U W=10U AS=20P AD=20P PS=24U PD=24U 
Mtr_00629 sig96 x[0] vdd vdd tp L=1U W=10U AS=20P AD=20P PS=24U PD=24U 
Mtr_00628 sig89 rtl_map_1 vdd vdd tp L=1U W=10U AS=20P AD=20P PS=24U PD=24U 
Mtr_00627 vdd sx[5] sig86 vdd tp L=1U W=10U AS=20P AD=20P PS=24U PD=24U 
Mtr_00626 u8.y0.xr2_x1_sig sig89 sig91 vdd tp L=1U W=20U AS=40P AD=40P PS=44U PD=44U 
Mtr_00625 sig91 sx[5] vdd vdd tp L=1U W=20U AS=40P AD=40P PS=44U PD=44U 
Mtr_00624 sig91 sig86 u8.y0.xr2_x1_sig vdd tp L=1U W=20U AS=40P AD=40P PS=44U PD=44U 
Mtr_00623 vdd rtl_map_1 sig91 vdd tp L=1U W=20U AS=40P AD=40P PS=44U PD=44U 
Mtr_00622 sig103 rtl_map_0 vdd vdd tp L=1U W=10U AS=20P AD=20P PS=24U PD=24U 
Mtr_00621 vdd sx[9] sig101 vdd tp L=1U W=10U AS=20P AD=20P PS=24U PD=24U 
Mtr_00620 u12.y0.xr2_x1_sig sig103 sig99 vdd tp L=1U W=20U AS=40P AD=40P PS=44U PD=44U 
Mtr_00619 sig99 sx[9] vdd vdd tp L=1U W=20U AS=40P AD=40P PS=44U PD=44U 
Mtr_00618 sig99 sig101 u12.y0.xr2_x1_sig vdd tp L=1U W=20U AS=40P AD=40P PS=44U PD=44U 
Mtr_00617 vdd rtl_map_0 sig99 vdd tp L=1U W=20U AS=40P AD=40P PS=44U PD=44U 
Mtr_00616 u12.x1 sig104 vdd vdd tp L=1U W=20U AS=40P AD=40P PS=44U PD=44U 
Mtr_00615 vdd y[3] sig104 vdd tp L=1U W=10U AS=20P AD=20P PS=24U PD=24U 
Mtr_00614 sig104 x[0] vdd vdd tp L=1U W=10U AS=20P AD=20P PS=24U PD=24U 
Mtr_00613 cx[12] sig108 vdd vdd tp L=1U W=20U AS=40P AD=40P PS=44U PD=44U 
Mtr_00612 sig106 sx[9] sig109 vdd tp L=1U W=20U AS=40P AD=40P PS=44U PD=44U 
Mtr_00611 sig106 rtl_map_0 vdd vdd tp L=1U W=14.5U AS=29P AD=29P PS=33U PD=33U 
Mtr_00610 vdd sx[9] sig106 vdd tp L=1U W=14.5U AS=29P AD=29P PS=33U PD=33U 
Mtr_00609 sig109 rtl_map_0 sig108 vdd tp L=1U W=20U AS=40P AD=40P PS=44U PD=44U 
Mtr_00608 sig108 u12.x1 sig106 vdd tp L=1U W=20U AS=40P AD=40P PS=44U PD=44U 
Mtr_00607 z[3] sig115 vdd vdd tp L=1U W=20U AS=40P AD=40P PS=44U PD=44U 
Mtr_00606 vdd sx[12] sig115 vdd tp L=1U W=6U AS=12P AD=12P PS=16U PD=16U 
Mtr_00605 sig114 u12.x1 vdd vdd tp L=1U W=10U AS=20P AD=20P PS=24U PD=24U 
Mtr_00604 vdd u12.y0.xr2_x1_sig sig111 vdd tp L=1U W=10U AS=20P AD=20P PS=24U PD=24U 
Mtr_00603 sx[12] sig114 sig113 vdd tp L=1U W=20U AS=40P AD=40P PS=44U PD=44U 
Mtr_00602 sig113 u12.y0.xr2_x1_sig vdd vdd tp L=1U W=20U AS=40P AD=40P PS=44U PD=44U 
Mtr_00601 sig113 sig111 sx[12] vdd tp L=1U W=20U AS=40P AD=40P PS=44U PD=44U 
Mtr_00600 vdd u12.x1 sig113 vdd tp L=1U W=20U AS=40P AD=40P PS=44U PD=44U 
Mtr_00599 cx[2] sig121 vdd vdd tp L=1U W=20U AS=40P AD=40P PS=44U PD=44U 
Mtr_00598 sig169 rtl_map_4 sig173 vdd tp L=1U W=20U AS=40P AD=40P PS=44U PD=44U 
Mtr_00597 sig169 cx[1] vdd vdd tp L=1U W=14.5U AS=29P AD=29P PS=33U PD=33U 
Mtr_00596 vdd rtl_map_4 sig169 vdd tp L=1U W=14.5U AS=29P AD=29P PS=33U PD=33U 
Mtr_00595 sig173 cx[1] sig121 vdd tp L=1U W=20U AS=40P AD=40P PS=44U PD=44U 
Mtr_00594 sig121 u2.x1 sig169 vdd tp L=1U W=20U AS=40P AD=40P PS=44U PD=44U 
Mtr_00593 sig127 u2.x1 vdd vdd tp L=1U W=10U AS=20P AD=20P PS=24U PD=24U 
Mtr_00592 vdd u2.y0.xr2_x1_sig sig126 vdd tp L=1U W=10U AS=20P AD=20P PS=24U PD=24U 
Mtr_00591 sx[2] sig127 sig174 vdd tp L=1U W=20U AS=40P AD=40P PS=44U PD=44U 
Mtr_00590 sig174 u2.y0.xr2_x1_sig vdd vdd tp L=1U W=20U AS=40P AD=40P PS=44U PD=44U 
Mtr_00589 sig174 sig126 sx[2] vdd tp L=1U W=20U AS=40P AD=40P PS=44U PD=44U 
Mtr_00588 vdd u2.x1 sig174 vdd tp L=1U W=20U AS=40P AD=40P PS=44U PD=44U 
Mtr_00587 sig138 cx[4] vdd vdd tp L=1U W=10U AS=20P AD=20P PS=24U PD=24U 
Mtr_00586 vdd sx[2] sig139 vdd tp L=1U W=10U AS=20P AD=20P PS=24U PD=24U 
Mtr_00585 u5.y0.xr2_x1_sig sig138 sig185 vdd tp L=1U W=20U AS=40P AD=40P PS=44U PD=44U 
Mtr_00584 sig185 sx[2] vdd vdd tp L=1U W=20U AS=40P AD=40P PS=44U PD=44U 
Mtr_00583 sig185 sig139 u5.y0.xr2_x1_sig vdd tp L=1U W=20U AS=40P AD=40P PS=44U PD=44U 
Mtr_00582 vdd cx[4] sig185 vdd tp L=1U W=20U AS=40P AD=40P PS=44U PD=44U 
Mtr_00581 cx[5] sig133 vdd vdd tp L=1U W=20U AS=40P AD=40P PS=44U PD=44U 
Mtr_00580 sig182 sx[2] sig183 vdd tp L=1U W=20U AS=40P AD=40P PS=44U PD=44U 
Mtr_00579 sig182 cx[4] vdd vdd tp L=1U W=14.5U AS=29P AD=29P PS=33U PD=33U 
Mtr_00578 vdd sx[2] sig182 vdd tp L=1U W=14.5U AS=29P AD=29P PS=33U PD=33U 
Mtr_00577 sig183 cx[4] sig133 vdd tp L=1U W=20U AS=40P AD=40P PS=44U PD=44U 
Mtr_00576 sig133 u5.x1 sig182 vdd tp L=1U W=20U AS=40P AD=40P PS=44U PD=44U 
Mtr_00575 cx[8] sig130 vdd vdd tp L=1U W=20U AS=40P AD=40P PS=44U PD=44U 
Mtr_00574 sig176 sx[5] sig179 vdd tp L=1U W=20U AS=40P AD=40P PS=44U PD=44U 
Mtr_00573 sig176 rtl_map_1 vdd vdd tp L=1U W=14.5U AS=29P AD=29P PS=33U PD=33U 
Mtr_00572 vdd sx[5] sig176 vdd tp L=1U W=14.5U AS=29P AD=29P PS=33U PD=33U 
Mtr_00571 sig179 rtl_map_1 sig130 vdd tp L=1U W=20U AS=40P AD=40P PS=44U PD=44U 
Mtr_00570 sig130 u8.x1 sig176 vdd tp L=1U W=20U AS=40P AD=40P PS=44U PD=44U 
Mtr_00569 u13.x1 sig154 vdd vdd tp L=1U W=20U AS=40P AD=40P PS=44U PD=44U 
Mtr_00568 vdd y[3] sig154 vdd tp L=1U W=10U AS=20P AD=20P PS=24U PD=24U 
Mtr_00567 sig154 x[1] vdd vdd tp L=1U W=10U AS=20P AD=20P PS=24U PD=24U 
Mtr_00566 sig148 u5.x1 vdd vdd tp L=1U W=10U AS=20P AD=20P PS=24U PD=24U 
Mtr_00565 vdd u5.y0.xr2_x1_sig sig145 vdd tp L=1U W=10U AS=20P AD=20P PS=24U PD=24U 
Mtr_00564 sx[5] sig148 sig186 vdd tp L=1U W=20U AS=40P AD=40P PS=44U PD=44U 
Mtr_00563 sig186 u5.y0.xr2_x1_sig vdd vdd tp L=1U W=20U AS=40P AD=40P PS=44U PD=44U 
Mtr_00562 sig186 sig145 sx[5] vdd tp L=1U W=20U AS=40P AD=40P PS=44U PD=44U 
Mtr_00561 vdd u5.x1 sig186 vdd tp L=1U W=20U AS=40P AD=40P PS=44U PD=44U 
Mtr_00560 u5.x1 sig153 vdd vdd tp L=1U W=20U AS=40P AD=40P PS=44U PD=44U 
Mtr_00559 vdd y[1] sig153 vdd tp L=1U W=10U AS=20P AD=20P PS=24U PD=24U 
Mtr_00558 sig153 x[1] vdd vdd tp L=1U W=10U AS=20P AD=20P PS=24U PD=24U 
Mtr_00557 sig163 cx[12] vdd vdd tp L=1U W=10U AS=20P AD=20P PS=24U PD=24U 
Mtr_00556 vdd sx[10] sig159 vdd tp L=1U W=10U AS=20P AD=20P PS=24U PD=24U 
Mtr_00555 u13.y0.xr2_x1_sig sig163 sig187 vdd tp L=1U W=20U AS=40P AD=40P PS=44U PD=44U 
Mtr_00554 sig187 sx[10] vdd vdd tp L=1U W=20U AS=40P AD=40P PS=44U PD=44U 
Mtr_00553 sig187 sig159 u13.y0.xr2_x1_sig vdd tp L=1U W=20U AS=40P AD=40P PS=44U PD=44U 
Mtr_00552 vdd cx[12] sig187 vdd tp L=1U W=20U AS=40P AD=40P PS=44U PD=44U 
Mtr_00551 sig166 u13.x1 vdd vdd tp L=1U W=10U AS=20P AD=20P PS=24U PD=24U 
Mtr_00550 vdd u13.y0.xr2_x1_sig sig167 vdd tp L=1U W=10U AS=20P AD=20P PS=24U PD=24U 
Mtr_00549 sx[13] sig166 sig188 vdd tp L=1U W=20U AS=40P AD=40P PS=44U PD=44U 
Mtr_00548 sig188 u13.y0.xr2_x1_sig vdd vdd tp L=1U W=20U AS=40P AD=40P PS=44U PD=44U 
Mtr_00547 sig188 sig167 sx[13] vdd tp L=1U W=20U AS=40P AD=40P PS=44U PD=44U 
Mtr_00546 vdd u13.x1 sig188 vdd tp L=1U W=20U AS=40P AD=40P PS=44U PD=44U 
Mtr_00545 sig200 u6.x1 vdd vdd tp L=1U W=10U AS=20P AD=20P PS=24U PD=24U 
Mtr_00544 vdd u6.y0.xr2_x1_sig sig196 vdd tp L=1U W=10U AS=20P AD=20P PS=24U PD=24U 
Mtr_00543 sx[6] sig200 sig197 vdd tp L=1U W=20U AS=40P AD=40P PS=44U PD=44U 
Mtr_00542 sig197 u6.y0.xr2_x1_sig vdd vdd tp L=1U W=20U AS=40P AD=40P PS=44U PD=44U 
Mtr_00541 sig197 sig196 sx[6] vdd tp L=1U W=20U AS=40P AD=40P PS=44U PD=44U 
Mtr_00540 vdd u6.x1 sig197 vdd tp L=1U W=20U AS=40P AD=40P PS=44U PD=44U 
Mtr_00539 sig195 cx[5] vdd vdd tp L=1U W=10U AS=20P AD=20P PS=24U PD=24U 
Mtr_00538 vdd sx[3] sig191 vdd tp L=1U W=10U AS=20P AD=20P PS=24U PD=24U 
Mtr_00537 u6.y0.xr2_x1_sig sig195 sig193 vdd tp L=1U W=20U AS=40P AD=40P PS=44U PD=44U 
Mtr_00536 sig193 sx[3] vdd vdd tp L=1U W=20U AS=40P AD=40P PS=44U PD=44U 
Mtr_00535 sig193 sig191 u6.y0.xr2_x1_sig vdd tp L=1U W=20U AS=40P AD=40P PS=44U PD=44U 
Mtr_00534 vdd cx[5] sig193 vdd tp L=1U W=20U AS=40P AD=40P PS=44U PD=44U 
Mtr_00533 u2.x1 sig189 vdd vdd tp L=1U W=20U AS=40P AD=40P PS=44U PD=44U 
Mtr_00532 vdd y[0] sig189 vdd tp L=1U W=10U AS=20P AD=20P PS=24U PD=24U 
Mtr_00531 sig189 x[2] vdd vdd tp L=1U W=10U AS=20P AD=20P PS=24U PD=24U 
Mtr_00530 sig202 cx[8] vdd vdd tp L=1U W=10U AS=20P AD=20P PS=24U PD=24U 
Mtr_00529 vdd sx[6] sig201 vdd tp L=1U W=10U AS=20P AD=20P PS=24U PD=24U 
Mtr_00528 u9.y0.xr2_x1_sig sig202 sig204 vdd tp L=1U W=20U AS=40P AD=40P PS=44U PD=44U 
Mtr_00527 sig204 sx[6] vdd vdd tp L=1U W=20U AS=40P AD=40P PS=44U PD=44U 
Mtr_00526 sig204 sig201 u9.y0.xr2_x1_sig vdd tp L=1U W=20U AS=40P AD=40P PS=44U PD=44U 
Mtr_00525 vdd cx[8] sig204 vdd tp L=1U W=20U AS=40P AD=40P PS=44U PD=44U 
Mtr_00524 sig212 u9.x1 vdd vdd tp L=1U W=10U AS=20P AD=20P PS=24U PD=24U 
Mtr_00523 vdd u9.y0.xr2_x1_sig sig210 vdd tp L=1U W=10U AS=20P AD=20P PS=24U PD=24U 
Mtr_00522 sx[9] sig212 sig213 vdd tp L=1U W=20U AS=40P AD=40P PS=44U PD=44U 
Mtr_00521 sig213 u9.y0.xr2_x1_sig vdd vdd tp L=1U W=20U AS=40P AD=40P PS=44U PD=44U 
Mtr_00520 sig213 sig210 sx[9] vdd tp L=1U W=20U AS=40P AD=40P PS=44U PD=44U 
Mtr_00519 vdd u9.x1 sig213 vdd tp L=1U W=20U AS=40P AD=40P PS=44U PD=44U 
Mtr_00518 u9.x1 sig211 vdd vdd tp L=1U W=20U AS=40P AD=40P PS=44U PD=44U 
Mtr_00517 vdd y[2] sig211 vdd tp L=1U W=10U AS=20P AD=20P PS=24U PD=24U 
Mtr_00516 sig211 x[1] vdd vdd tp L=1U W=10U AS=20P AD=20P PS=24U PD=24U 
Mtr_00515 cx[9] sig206 vdd vdd tp L=1U W=20U AS=40P AD=40P PS=44U PD=44U 
Mtr_00514 sig205 sx[6] sig208 vdd tp L=1U W=20U AS=40P AD=40P PS=44U PD=44U 
Mtr_00513 sig205 cx[8] vdd vdd tp L=1U W=14.5U AS=29P AD=29P PS=33U PD=33U 
Mtr_00512 vdd sx[6] sig205 vdd tp L=1U W=14.5U AS=29P AD=29P PS=33U PD=33U 
Mtr_00511 sig208 cx[8] sig206 vdd tp L=1U W=20U AS=40P AD=40P PS=44U PD=44U 
Mtr_00510 sig206 u9.x1 sig205 vdd tp L=1U W=20U AS=40P AD=40P PS=44U PD=44U 
Mtr_00509 sig222 cx[13] vdd vdd tp L=1U W=10U AS=20P AD=20P PS=24U PD=24U 
Mtr_00508 vdd sx[11] sig217 vdd tp L=1U W=10U AS=20P AD=20P PS=24U PD=24U 
Mtr_00507 u14.y0.xr2_x1_sig sig222 sig219 vdd tp L=1U W=20U AS=40P AD=40P PS=44U PD=44U 
Mtr_00506 sig219 sx[11] vdd vdd tp L=1U W=20U AS=40P AD=40P PS=44U PD=44U 
Mtr_00505 sig219 sig217 u14.y0.xr2_x1_sig vdd tp L=1U W=20U AS=40P AD=40P PS=44U PD=44U 
Mtr_00504 vdd cx[13] sig219 vdd tp L=1U W=20U AS=40P AD=40P PS=44U PD=44U 
Mtr_00503 z[4] sig224 vdd vdd tp L=1U W=20U AS=40P AD=40P PS=44U PD=44U 
Mtr_00502 vdd sx[13] sig224 vdd tp L=1U W=6U AS=12P AD=12P PS=16U PD=16U 
Mtr_00501 cx[13] sig214 vdd vdd tp L=1U W=20U AS=40P AD=40P PS=44U PD=44U 
Mtr_00500 sig215 sx[10] sig218 vdd tp L=1U W=20U AS=40P AD=40P PS=44U PD=44U 
Mtr_00499 sig215 cx[12] vdd vdd tp L=1U W=14.5U AS=29P AD=29P PS=33U PD=33U 
Mtr_00498 vdd sx[10] sig215 vdd tp L=1U W=14.5U AS=29P AD=29P PS=33U PD=33U 
Mtr_00497 sig218 cx[12] sig214 vdd tp L=1U W=20U AS=40P AD=40P PS=44U PD=44U 
Mtr_00496 sig214 u13.x1 sig215 vdd tp L=1U W=20U AS=40P AD=40P PS=44U PD=44U 
Mtr_00495 sig227 u3.x1 vdd vdd tp L=1U W=10U AS=20P AD=20P PS=24U PD=24U 
Mtr_00494 vdd u3.y0.xr2_x1_sig sig230 vdd tp L=1U W=10U AS=20P AD=20P PS=24U PD=24U 
Mtr_00493 sx[3] sig227 sig265 vdd tp L=1U W=20U AS=40P AD=40P PS=44U PD=44U 
Mtr_00492 sig265 u3.y0.xr2_x1_sig vdd vdd tp L=1U W=20U AS=40P AD=40P PS=44U PD=44U 
Mtr_00491 sig265 sig230 sx[3] vdd tp L=1U W=20U AS=40P AD=40P PS=44U PD=44U 
Mtr_00490 vdd u3.x1 sig265 vdd tp L=1U W=20U AS=40P AD=40P PS=44U PD=44U 
Mtr_00489 cx[6] sig270 vdd vdd tp L=1U W=20U AS=40P AD=40P PS=44U PD=44U 
Mtr_00488 sig272 sx[3] sig275 vdd tp L=1U W=20U AS=40P AD=40P PS=44U PD=44U 
Mtr_00487 sig272 cx[5] vdd vdd tp L=1U W=14.5U AS=29P AD=29P PS=33U PD=33U 
Mtr_00486 vdd sx[3] sig272 vdd tp L=1U W=14.5U AS=29P AD=29P PS=33U PD=33U 
Mtr_00485 sig275 cx[5] sig270 vdd tp L=1U W=20U AS=40P AD=40P PS=44U PD=44U 
Mtr_00484 sig270 u6.x1 sig272 vdd tp L=1U W=20U AS=40P AD=40P PS=44U PD=44U 
Mtr_00483 u6.x1 sig240 vdd vdd tp L=1U W=20U AS=40P AD=40P PS=44U PD=44U 
Mtr_00482 vdd y[1] sig240 vdd tp L=1U W=10U AS=20P AD=20P PS=24U PD=24U 
Mtr_00481 sig240 x[2] vdd vdd tp L=1U W=10U AS=20P AD=20P PS=24U PD=24U 
Mtr_00480 sig245 cx[9] vdd vdd tp L=1U W=10U AS=20P AD=20P PS=24U PD=24U 
Mtr_00479 vdd sx[7] sig244 vdd tp L=1U W=10U AS=20P AD=20P PS=24U PD=24U 
Mtr_00478 u10.y0.xr2_x1_sig sig245 sig278 vdd tp L=1U W=20U AS=40P AD=40P PS=44U PD=44U 
Mtr_00477 sig278 sx[7] vdd vdd tp L=1U W=20U AS=40P AD=40P PS=44U PD=44U 
Mtr_00476 sig278 sig244 u10.y0.xr2_x1_sig vdd tp L=1U W=20U AS=40P AD=40P PS=44U PD=44U 
Mtr_00475 vdd cx[9] sig278 vdd tp L=1U W=20U AS=40P AD=40P PS=44U PD=44U 
Mtr_00474 sig233 cx[2] vdd vdd tp L=1U W=10U AS=20P AD=20P PS=24U PD=24U 
Mtr_00473 vdd rtl_map_3 sig235 vdd tp L=1U W=10U AS=20P AD=20P PS=24U PD=24U 
Mtr_00472 u3.y0.xr2_x1_sig sig233 sig269 vdd tp L=1U W=20U AS=40P AD=40P PS=44U PD=44U 
Mtr_00471 sig269 rtl_map_3 vdd vdd tp L=1U W=20U AS=40P AD=40P PS=44U PD=44U 
Mtr_00470 sig269 sig235 u3.y0.xr2_x1_sig vdd tp L=1U W=20U AS=40P AD=40P PS=44U PD=44U 
Mtr_00469 vdd cx[2] sig269 vdd tp L=1U W=20U AS=40P AD=40P PS=44U PD=44U 
Mtr_00468 u14.x1 sig256 vdd vdd tp L=1U W=20U AS=40P AD=40P PS=44U PD=44U 
Mtr_00467 vdd y[3] sig256 vdd tp L=1U W=10U AS=20P AD=20P PS=24U PD=24U 
Mtr_00466 sig256 x[2] vdd vdd tp L=1U W=10U AS=20P AD=20P PS=24U PD=24U 
Mtr_00465 u10.x1 sig247 vdd vdd tp L=1U W=20U AS=40P AD=40P PS=44U PD=44U 
Mtr_00464 vdd y[2] sig247 vdd tp L=1U W=10U AS=20P AD=20P PS=24U PD=24U 
Mtr_00463 sig247 x[2] vdd vdd tp L=1U W=10U AS=20P AD=20P PS=24U PD=24U 
Mtr_00462 sig255 u10.x1 vdd vdd tp L=1U W=10U AS=20P AD=20P PS=24U PD=24U 
Mtr_00461 vdd u10.y0.xr2_x1_sig sig254 vdd tp L=1U W=10U AS=20P AD=20P PS=24U PD=24U 
Mtr_00460 sx[10] sig255 sig282 vdd tp L=1U W=20U AS=40P AD=40P PS=44U PD=44U 
Mtr_00459 sig282 u10.y0.xr2_x1_sig vdd vdd tp L=1U W=20U AS=40P AD=40P PS=44U PD=44U 
Mtr_00458 sig282 sig254 sx[10] vdd tp L=1U W=20U AS=40P AD=40P PS=44U PD=44U 
Mtr_00457 vdd u10.x1 sig282 vdd tp L=1U W=20U AS=40P AD=40P PS=44U PD=44U 
Mtr_00456 z[5] sig262 vdd vdd tp L=1U W=20U AS=40P AD=40P PS=44U PD=44U 
Mtr_00455 vdd sx[14] sig262 vdd tp L=1U W=6U AS=12P AD=12P PS=16U PD=16U 
Mtr_00454 sig261 u14.x1 vdd vdd tp L=1U W=10U AS=20P AD=20P PS=24U PD=24U 
Mtr_00453 vdd u14.y0.xr2_x1_sig sig260 vdd tp L=1U W=10U AS=20P AD=20P PS=24U PD=24U 
Mtr_00452 sx[14] sig261 sig288 vdd tp L=1U W=20U AS=40P AD=40P PS=44U PD=44U 
Mtr_00451 sig288 u14.y0.xr2_x1_sig vdd vdd tp L=1U W=20U AS=40P AD=40P PS=44U PD=44U 
Mtr_00450 sig288 sig260 sx[14] vdd tp L=1U W=20U AS=40P AD=40P PS=44U PD=44U 
Mtr_00449 vdd u14.x1 sig288 vdd tp L=1U W=20U AS=40P AD=40P PS=44U PD=44U 
Mtr_00448 u3.x1 sig291 vdd vdd tp L=1U W=20U AS=40P AD=40P PS=44U PD=44U 
Mtr_00447 vdd y[0] sig291 vdd tp L=1U W=10U AS=20P AD=20P PS=24U PD=24U 
Mtr_00446 sig291 x[3] vdd vdd tp L=1U W=10U AS=20P AD=20P PS=24U PD=24U 
Mtr_00445 cx[3] sig294 vdd vdd tp L=1U W=20U AS=40P AD=40P PS=44U PD=44U 
Mtr_00444 sig290 rtl_map_3 sig293 vdd tp L=1U W=20U AS=40P AD=40P PS=44U PD=44U 
Mtr_00443 sig290 cx[2] vdd vdd tp L=1U W=14.5U AS=29P AD=29P PS=33U PD=33U 
Mtr_00442 vdd rtl_map_3 sig290 vdd tp L=1U W=14.5U AS=29P AD=29P PS=33U PD=33U 
Mtr_00441 sig293 cx[2] sig294 vdd tp L=1U W=20U AS=40P AD=40P PS=44U PD=44U 
Mtr_00440 sig294 u3.x1 sig290 vdd tp L=1U W=20U AS=40P AD=40P PS=44U PD=44U 
Mtr_00439 sig301 cx[10] vdd vdd tp L=1U W=10U AS=20P AD=20P PS=24U PD=24U 
Mtr_00438 vdd cx[7] sig295 vdd tp L=1U W=10U AS=20P AD=20P PS=24U PD=24U 
Mtr_00437 u11.y0.xr2_x1_sig sig301 sig298 vdd tp L=1U W=20U AS=40P AD=40P PS=44U PD=44U 
Mtr_00436 sig298 cx[7] vdd vdd tp L=1U W=20U AS=40P AD=40P PS=44U PD=44U 
Mtr_00435 sig298 sig295 u11.y0.xr2_x1_sig vdd tp L=1U W=20U AS=40P AD=40P PS=44U PD=44U 
Mtr_00434 vdd cx[10] sig298 vdd tp L=1U W=20U AS=40P AD=40P PS=44U PD=44U 
Mtr_00433 cx[11] sig302 vdd vdd tp L=1U W=20U AS=40P AD=40P PS=44U PD=44U 
Mtr_00432 sig303 cx[7] sig305 vdd tp L=1U W=20U AS=40P AD=40P PS=44U PD=44U 
Mtr_00431 sig303 cx[10] vdd vdd tp L=1U W=14.5U AS=29P AD=29P PS=33U PD=33U 
Mtr_00430 vdd cx[7] sig303 vdd tp L=1U W=14.5U AS=29P AD=29P PS=33U PD=33U 
Mtr_00429 sig305 cx[10] sig302 vdd tp L=1U W=20U AS=40P AD=40P PS=44U PD=44U 
Mtr_00428 sig302 u11.x1 sig303 vdd tp L=1U W=20U AS=40P AD=40P PS=44U PD=44U 
Mtr_00427 z[6] sig327 vdd vdd tp L=1U W=20U AS=40P AD=40P PS=44U PD=44U 
Mtr_00426 vdd sx[15] sig327 vdd tp L=1U W=6U AS=12P AD=12P PS=16U PD=16U 
Mtr_00425 sig312 u11.x1 vdd vdd tp L=1U W=10U AS=20P AD=20P PS=24U PD=24U 
Mtr_00424 vdd u11.y0.xr2_x1_sig sig311 vdd tp L=1U W=10U AS=20P AD=20P PS=24U PD=24U 
Mtr_00423 sx[11] sig312 sig310 vdd tp L=1U W=20U AS=40P AD=40P PS=44U PD=44U 
Mtr_00422 sig310 u11.y0.xr2_x1_sig vdd vdd tp L=1U W=20U AS=40P AD=40P PS=44U PD=44U 
Mtr_00421 sig310 sig311 sx[11] vdd tp L=1U W=20U AS=40P AD=40P PS=44U PD=44U 
Mtr_00420 vdd u11.x1 sig310 vdd tp L=1U W=20U AS=40P AD=40P PS=44U PD=44U 
Mtr_00419 cx[10] sig309 vdd vdd tp L=1U W=20U AS=40P AD=40P PS=44U PD=44U 
Mtr_00418 sig307 sx[7] sig308 vdd tp L=1U W=20U AS=40P AD=40P PS=44U PD=44U 
Mtr_00417 sig307 cx[9] vdd vdd tp L=1U W=14.5U AS=29P AD=29P PS=33U PD=33U 
Mtr_00416 vdd sx[7] sig307 vdd tp L=1U W=14.5U AS=29P AD=29P PS=33U PD=33U 
Mtr_00415 sig308 cx[9] sig309 vdd tp L=1U W=20U AS=40P AD=40P PS=44U PD=44U 
Mtr_00414 sig309 u10.x1 sig307 vdd tp L=1U W=20U AS=40P AD=40P PS=44U PD=44U 
Mtr_00413 sig318 u15.x1 vdd vdd tp L=1U W=10U AS=20P AD=20P PS=24U PD=24U 
Mtr_00412 vdd u15.y0.xr2_x1_sig sig313 vdd tp L=1U W=10U AS=20P AD=20P PS=24U PD=24U 
Mtr_00411 sx[15] sig318 sig314 vdd tp L=1U W=20U AS=40P AD=40P PS=44U PD=44U 
Mtr_00410 sig314 u15.y0.xr2_x1_sig vdd vdd tp L=1U W=20U AS=40P AD=40P PS=44U PD=44U 
Mtr_00409 sig314 sig313 sx[15] vdd tp L=1U W=20U AS=40P AD=40P PS=44U PD=44U 
Mtr_00408 vdd u15.x1 sig314 vdd tp L=1U W=20U AS=40P AD=40P PS=44U PD=44U 
Mtr_00407 sig321 cx[14] vdd vdd tp L=1U W=10U AS=20P AD=20P PS=24U PD=24U 
Mtr_00406 vdd cx[11] sig319 vdd tp L=1U W=10U AS=20P AD=20P PS=24U PD=24U 
Mtr_00405 u15.y0.xr2_x1_sig sig321 sig320 vdd tp L=1U W=20U AS=40P AD=40P PS=44U PD=44U 
Mtr_00404 sig320 cx[11] vdd vdd tp L=1U W=20U AS=40P AD=40P PS=44U PD=44U 
Mtr_00403 sig320 sig319 u15.y0.xr2_x1_sig vdd tp L=1U W=20U AS=40P AD=40P PS=44U PD=44U 
Mtr_00402 vdd cx[14] sig320 vdd tp L=1U W=20U AS=40P AD=40P PS=44U PD=44U 
Mtr_00401 cx[14] sig325 vdd vdd tp L=1U W=20U AS=40P AD=40P PS=44U PD=44U 
Mtr_00400 sig322 sx[11] sig324 vdd tp L=1U W=20U AS=40P AD=40P PS=44U PD=44U 
Mtr_00399 sig322 cx[13] vdd vdd tp L=1U W=14.5U AS=29P AD=29P PS=33U PD=33U 
Mtr_00398 vdd sx[11] sig322 vdd tp L=1U W=14.5U AS=29P AD=29P PS=33U PD=33U 
Mtr_00397 sig324 cx[13] sig325 vdd tp L=1U W=20U AS=40P AD=40P PS=44U PD=44U 
Mtr_00396 sig325 u14.x1 sig322 vdd tp L=1U W=20U AS=40P AD=40P PS=44U PD=44U 
Mtr_00395 cx[7] sig352 vdd vdd tp L=1U W=20U AS=40P AD=40P PS=44U PD=44U 
Mtr_00394 sig374 cx[3] sig373 vdd tp L=1U W=20U AS=40P AD=40P PS=44U PD=44U 
Mtr_00393 sig374 cx[6] vdd vdd tp L=1U W=14.5U AS=29P AD=29P PS=33U PD=33U 
Mtr_00392 vdd cx[3] sig374 vdd tp L=1U W=14.5U AS=29P AD=29P PS=33U PD=33U 
Mtr_00391 sig373 cx[6] sig352 vdd tp L=1U W=20U AS=40P AD=40P PS=44U PD=44U 
Mtr_00390 sig352 u7.x1 sig374 vdd tp L=1U W=20U AS=40P AD=40P PS=44U PD=44U 
Mtr_00389 sig350 cx[6] vdd vdd tp L=1U W=10U AS=20P AD=20P PS=24U PD=24U 
Mtr_00388 vdd cx[3] sig346 vdd tp L=1U W=10U AS=20P AD=20P PS=24U PD=24U 
Mtr_00387 u7.y0.xr2_x1_sig sig350 sig371 vdd tp L=1U W=20U AS=40P AD=40P PS=44U PD=44U 
Mtr_00386 sig371 cx[3] vdd vdd tp L=1U W=20U AS=40P AD=40P PS=44U PD=44U 
Mtr_00385 sig371 sig346 u7.y0.xr2_x1_sig vdd tp L=1U W=20U AS=40P AD=40P PS=44U PD=44U 
Mtr_00384 vdd cx[6] sig371 vdd tp L=1U W=20U AS=40P AD=40P PS=44U PD=44U 
Mtr_00383 u7.x1 sig359 vdd vdd tp L=1U W=20U AS=40P AD=40P PS=44U PD=44U 
Mtr_00382 vdd y[1] sig359 vdd tp L=1U W=10U AS=20P AD=20P PS=24U PD=24U 
Mtr_00381 sig359 x[3] vdd vdd tp L=1U W=10U AS=20P AD=20P PS=24U PD=24U 
Mtr_00380 sig357 u7.x1 vdd vdd tp L=1U W=10U AS=20P AD=20P PS=24U PD=24U 
Mtr_00379 vdd u7.y0.xr2_x1_sig sig356 vdd tp L=1U W=10U AS=20P AD=20P PS=24U PD=24U 
Mtr_00378 sx[7] sig357 sig375 vdd tp L=1U W=20U AS=40P AD=40P PS=44U PD=44U 
Mtr_00377 sig375 u7.y0.xr2_x1_sig vdd vdd tp L=1U W=20U AS=40P AD=40P PS=44U PD=44U 
Mtr_00376 sig375 sig356 sx[7] vdd tp L=1U W=20U AS=40P AD=40P PS=44U PD=44U 
Mtr_00375 vdd u7.x1 sig375 vdd tp L=1U W=20U AS=40P AD=40P PS=44U PD=44U 
Mtr_00374 u11.x1 sig361 vdd vdd tp L=1U W=20U AS=40P AD=40P PS=44U PD=44U 
Mtr_00373 vdd y[2] sig361 vdd tp L=1U W=10U AS=20P AD=20P PS=24U PD=24U 
Mtr_00372 sig361 x[3] vdd vdd tp L=1U W=10U AS=20P AD=20P PS=24U PD=24U 
Mtr_00371 u15.x1 sig363 vdd vdd tp L=1U W=20U AS=40P AD=40P PS=44U PD=44U 
Mtr_00370 vdd y[3] sig363 vdd tp L=1U W=10U AS=20P AD=20P PS=24U PD=24U 
Mtr_00369 sig363 x[3] vdd vdd tp L=1U W=10U AS=20P AD=20P PS=24U PD=24U 
Mtr_00368 cx[15] sig366 vdd vdd tp L=1U W=20U AS=40P AD=40P PS=44U PD=44U 
Mtr_00367 sig376 cx[11] sig377 vdd tp L=1U W=20U AS=40P AD=40P PS=44U PD=44U 
Mtr_00366 sig376 cx[14] vdd vdd tp L=1U W=14.5U AS=29P AD=29P PS=33U PD=33U 
Mtr_00365 vdd cx[11] sig376 vdd tp L=1U W=14.5U AS=29P AD=29P PS=33U PD=33U 
Mtr_00364 sig377 cx[14] sig366 vdd tp L=1U W=20U AS=40P AD=40P PS=44U PD=44U 
Mtr_00363 sig366 u15.x1 sig376 vdd tp L=1U W=20U AS=40P AD=40P PS=44U PD=44U 
Mtr_00362 z[7] sig369 vdd vdd tp L=1U W=20U AS=40P AD=40P PS=44U PD=44U 
Mtr_00361 vdd cx[15] sig369 vdd tp L=1U W=6U AS=12P AD=12P PS=16U PD=16U 
Mtr_00360 vss vdd rtl_map_5 vss tn L=1U W=5U AS=10P AD=10P PS=14U PD=14U 
Mtr_00359 vss vdd rtl_map_7 vss tn L=1U W=5U AS=10P AD=10P PS=14U PD=14U 
Mtr_00358 sig3 x[0] sig28 vss tn L=1U W=10U AS=20P AD=20P PS=24U PD=24U 
Mtr_00357 vss sig3 u0.x1 vss tn L=1U W=10U AS=20P AD=20P PS=24U PD=24U 
Mtr_00356 sig28 y[0] vss vss tn L=1U W=10U AS=20P AD=20P PS=24U PD=24U 
Mtr_00355 sig13 rtl_map_7 vss vss tn L=1U W=5U AS=10P AD=10P PS=14U PD=14U 
Mtr_00354 vss rtl_map_6 sig16 vss tn L=1U W=5U AS=10P AD=10P PS=14U PD=14U 
Mtr_00353 sig54 sig16 vss vss tn L=1U W=10U AS=20P AD=20P PS=24U PD=24U 
Mtr_00352 u0.y0.xr2_x1_sig sig13 sig54 vss tn L=1U W=10U AS=20P AD=20P PS=24U PD=24U 
Mtr_00351 sig49 rtl_map_6 u0.y0.xr2_x1_sig vss tn L=1U W=10U AS=20P AD=20P PS=24U PD=24U 
Mtr_00350 vss rtl_map_7 sig49 vss tn L=1U W=10U AS=20P AD=20P PS=24U PD=24U 
Mtr_00349 vss sig8 cx[0] vss tn L=1U W=10U AS=20P AD=20P PS=24U PD=24U 
Mtr_00348 vss rtl_map_6 sig35 vss tn L=1U W=6U AS=12P AD=12P PS=16U PD=16U 
Mtr_00347 sig35 rtl_map_7 vss vss tn L=1U W=6U AS=12P AD=12P PS=16U PD=16U 
Mtr_00346 sig8 rtl_map_6 sig36 vss tn L=1U W=9U AS=18P AD=18P PS=22U PD=22U 
Mtr_00345 sig36 rtl_map_7 vss vss tn L=1U W=9U AS=18P AD=18P PS=22U PD=22U 
Mtr_00344 sig35 u0.x1 sig8 vss tn L=1U W=6U AS=12P AD=12P PS=16U PD=16U 
Mtr_00343 sig17 u0.y0.xr2_x1_sig vss vss tn L=1U W=5U AS=10P AD=10P PS=14U PD=14U 
Mtr_00342 vss u0.x1 sig18 vss tn L=1U W=5U AS=10P AD=10P PS=14U PD=14U 
Mtr_00341 sig59 sig18 vss vss tn L=1U W=10U AS=20P AD=20P PS=24U PD=24U 
Mtr_00340 sx[0] sig17 sig59 vss tn L=1U W=10U AS=20P AD=20P PS=24U PD=24U 
Mtr_00339 sig60 u0.x1 sx[0] vss tn L=1U W=10U AS=20P AD=20P PS=24U PD=24U 
Mtr_00338 vss u0.y0.xr2_x1_sig sig60 vss tn L=1U W=10U AS=20P AD=20P PS=24U PD=24U 
Mtr_00337 vss vdd rtl_map_6 vss tn L=1U W=5U AS=10P AD=10P PS=14U PD=14U 
Mtr_00336 vss sig21 z[0] vss tn L=1U W=10U AS=20P AD=20P PS=24U PD=24U 
Mtr_00335 sig21 sx[0] vss vss tn L=1U W=3U AS=6P AD=6P PS=10U PD=10U 
Mtr_00334 vss sig25 cx[1] vss tn L=1U W=10U AS=20P AD=20P PS=24U PD=24U 
Mtr_00333 vss cx[0] sig24 vss tn L=1U W=6U AS=12P AD=12P PS=16U PD=16U 
Mtr_00332 sig24 rtl_map_5 vss vss tn L=1U W=6U AS=12P AD=12P PS=16U PD=16U 
Mtr_00331 sig25 cx[0] sig26 vss tn L=1U W=9U AS=18P AD=18P PS=22U PD=22U 
Mtr_00330 sig26 rtl_map_5 vss vss tn L=1U W=9U AS=18P AD=18P PS=22U PD=22U 
Mtr_00329 sig24 u1.x1 sig25 vss tn L=1U W=6U AS=12P AD=12P PS=16U PD=16U 