* Spice description of act5_cougar
* Spice driver version -1208955228
* Date ( dd/mm/yyyy hh:mm:ss ): 22/11/2020 at 11:54:04

* INTERF clk ctrl ctrl1 dh[0] dh[1] dh[2] dh[3] dm[0] dm[1] dm[2] dm[3] rst 
* INTERF uh[0] uh[1] uh[2] uh[3] um[0] um[1] um[2] um[3] vdd vss 


.subckt act5_cougar 1810 1244 184 839 476 186 22 1228 1157 1061 949 1708 846 845 841 479 1728 1607 1474 1345 1814 1727 
* NET 22 = dh[3]
* NET 24 = cdm_0_ins.sff_s
* NET 28 = cdm_0_ins.y
* NET 30 = cdm_0_ins.sff_m
* NET 32 = cdm_0_ins.u
* NET 33 = cdm_0_ins.nckr
* NET 34 = cdm_0_ins.ckr
* NET 39 = xr2_x1_2_sig
* NET 41 = on12_x1_4_sig
* NET 42 = noa22_x1_13_sig
* NET 45 = a3_x2_2_sig
* NET 48 = na2_x1_10_sig
* NET 54 = stop
* NET 56 = stop_ins.sff_s
* NET 57 = stop_ins.y
* NET 59 = stop_ins.sff_m
* NET 61 = stop_ins.u
* NET 62 = stop_ins.ckr
* NET 63 = stop_ins.nckr
* NET 65 = inv_x2_4_sig
* NET 70 = noa22_x1_6_sig
* NET 73 = on12_x1_sig
* NET 75 = cdh_2_ins.y
* NET 77 = cdh_2_ins.sff_m
* NET 78 = cdh_2_ins.sff_s
* NET 79 = noa22_x1_5_sig
* NET 81 = cdh_2_ins.nckr
* NET 82 = cdh_2_ins.u
* NET 83 = cdh_2_ins.ckr
* NET 85 = cdm_1_ins.y
* NET 86 = cdm_1_ins.sff_s
* NET 87 = cdm_1_ins.u
* NET 88 = cdm_1_ins.sff_m
* NET 91 = cdm_1_ins.ckr
* NET 92 = cdm_1_ins.nckr
* NET 95 = a2_x2_5_sig
* NET 96 = ao22_x2_sig
* NET 101 = a3_x2_3_sig
* NET 102 = an12_x1_2_sig
* NET 105 = aux60
* NET 108 = oa22_x2_11_sig
* NET 112 = na2_x1_11_sig
* NET 114 = cdh_0_ins.sff_s
* NET 115 = cdh_0_ins.y
* NET 118 = cdh_0_ins.sff_m
* NET 119 = cdh_0_ins.u
* NET 120 = cdh_0_ins.ckr
* NET 121 = cdh_0_ins.nckr
* NET 122 = inv_x2_3_sig
* NET 125 = noa22_x1_3_sig
* NET 127 = noa22_x1_2_sig
* NET 128 = oa22_x2_sig
* NET 132 = inv_x2_2_sig
* NET 134 = noa22_x1_sig
* NET 138 = a2_x2_7_sig
* NET 141 = oa22_x2_15_sig
* NET 145 = cum_0_ins.sff_s
* NET 146 = noa22_x1_16_sig
* NET 147 = cum_0_ins.y
* NET 149 = cum_0_ins.u
* NET 150 = cum_0_ins.sff_m
* NET 152 = cum_0_ins.nckr
* NET 153 = cum_0_ins.ckr
* NET 155 = mbk_buf_not_aux128
* NET 158 = xr2_x1_sig
* NET 166 = nxr2_x1_sig
* NET 184 = ctrl1
* NET 186 = dh[2]
* NET 190 = cdm_3_ins.y
* NET 192 = cdm_3_ins.sff_m
* NET 193 = cdm_3_ins.sff_s
* NET 194 = cdm_3_ins.u
* NET 196 = cdm_3_ins.ckr
* NET 197 = cdm_3_ins.nckr
* NET 198 = noa22_x1_15_sig
* NET 202 = oa2ao222_x2_sig
* NET 203 = inv_x2_7_sig
* NET 212 = no4_x1_5_sig
* NET 213 = a2_x2_6_sig
* NET 215 = aux63
* NET 216 = oa22_x2_2_sig
* NET 219 = na2_x1_6_sig
* NET 223 = no4_x1_2_sig
* NET 224 = aux32
* NET 226 = nao22_x1_sig
* NET 229 = aux4
* NET 230 = not_aux4
* NET 233 = oa22_x2_4_sig
* NET 236 = not_aux128
* NET 238 = a2_x2_2_sig
* NET 244 = maquina_ins.y
* NET 246 = maquina_ins.sff_m
* NET 247 = maquina_ins.sff_s
* NET 248 = no2_x1_sig
* NET 250 = maquina_ins.nckr
* NET 251 = maquina_ins.u
* NET 252 = maquina_ins.ckr
* NET 256 = rtlalc_9_2_ins.u
* NET 258 = rtlalc_9_2_ins.ckr
* NET 259 = rtlalc_9_2_ins.nckr
* NET 265 = not_aux44
* NET 267 = aux61
* NET 268 = aux62
* NET 272 = not_aux62
* NET 279 = na2_x1_3_sig
* NET 282 = na2_x1_4_sig
* NET 296 = cdh_1_ins.u
* NET 297 = cdh_1_ins.ckr
* NET 298 = cdh_1_ins.nckr
* NET 300 = rtlalc_9[2]
* NET 301 = rtlalc_9_2_ins.sff_s
* NET 302 = rtlalc_9_2_ins.sff_m
* NET 303 = rtlalc_9_2_ins.y
* NET 309 = oa22_x2_14_sig
* NET 312 = na3_x1_11_sig
* NET 315 = o3_x2_9_sig
* NET 319 = not_aux67
* NET 326 = o3_x2_8_sig
* NET 333 = not_aux24
* NET 337 = mbk_buf_aux4
* NET 341 = na4_x1_3_sig
* NET 344 = o4_x2_3_sig
* NET 346 = mbk_buf_not_aux3
* NET 347 = na3_x1_3_sig
* NET 350 = not_cdh[3]
* NET 351 = not_aux18
* NET 361 = na3_x1_5_sig
* NET 363 = noa22_x1_4_sig
* NET 365 = cdh_1_ins.sff_s
* NET 367 = cdh_1_ins.sff_m
* NET 368 = cdh_1_ins.y
* NET 373 = cdm_2_ins.y
* NET 374 = cdm_2_ins.sff_s
* NET 376 = cdm_2_ins.u
* NET 377 = cdm_2_ins.sff_m
* NET 380 = na2_x1_13_sig
* NET 381 = cdm_2_ins.nckr
* NET 382 = cdm_2_ins.ckr
* NET 384 = an12_x1_3_sig
* NET 386 = aux64
* NET 391 = oa22_x2_12_sig
* NET 392 = o4_x2_sig
* NET 395 = oa22_x2_13_sig
* NET 396 = noa22_x1_14_sig
* NET 398 = na2_x1_12_sig
* NET 399 = a3_x2_4_sig
* NET 400 = not_aux59
* NET 402 = o2_x2_5_sig
* NET 406 = cuh_2_ins.sff_s
* NET 407 = cuh_2_ins.y
* NET 409 = cuh_2_ins.sff_m
* NET 411 = cuh_2_ins.u
* NET 412 = cuh_2_ins.ckr
* NET 413 = cuh_2_ins.nckr
* NET 414 = na3_x1_4_sig
* NET 415 = not_aux118
* NET 417 = na3_x1_2_sig
* NET 420 = na2_x1_2_sig
* NET 421 = o2_x2_2_sig
* NET 424 = not_aux3
* NET 430 = cdh_3_ins.sff_s
* NET 431 = cdh_3_ins.y
* NET 433 = cdh_3_ins.sff_m
* NET 434 = cdh_3_ins.nckr
* NET 435 = cdh_3_ins.u
* NET 436 = cdh_3_ins.ckr
* NET 438 = noa22_x1_7_sig
* NET 439 = na3_x1_7_sig
* NET 440 = oa22_x2_5_sig
* NET 441 = o3_x2_2_sig
* NET 444 = na3_x1_6_sig
* NET 445 = not_aux25
* NET 446 = oa22_x2_3_sig
* NET 476 = dh[1]
* NET 479 = uh[3]
* NET 482 = on12_x1_5_sig
* NET 484 = o4_x2_2_sig
* NET 488 = not_cdm[0]
* NET 489 = not_aux45
* NET 498 = o2_x2_3_sig
* NET 501 = oa22_x2_8_sig
* NET 502 = na3_x1_10_sig
* NET 503 = noa22_x1_10_sig
* NET 506 = not_aux54
* NET 508 = a4_x2_sig
* NET 514 = not_aux16
* NET 519 = na2_x1_5_sig
* NET 521 = mbk_buf_not_aux4
* NET 522 = an12_x1_sig
* NET 523 = no4_x1_sig
* NET 526 = a4_x2_2_sig
* NET 532 = rtlalc_9[1]
* NET 533 = rtlalc_9_1_ins.y
* NET 534 = rtlalc_9_1_ins.sff_s
* NET 536 = rtlalc_9_1_ins.u
* NET 538 = rtlalc_9_1_ins.sff_m
* NET 541 = rtlalc_9_1_ins.ckr
* NET 542 = rtlalc_9_1_ins.nckr
* NET 549 = mbk_buf_not_aux1
* NET 551 = o2_x2_sig
* NET 553 = not_cdh[1]
* NET 554 = o3_x2_3_sig
* NET 557 = inv_x2_5_sig
* NET 559 = aux114
* NET 560 = not_aux31
* NET 561 = o3_x2_sig
* NET 564 = rtlalc_9[3]
* NET 566 = rtlalc_9_3_ins.sff_s
* NET 567 = rtlalc_9_3_ins.y
* NET 569 = rtlalc_9_3_ins.u
* NET 571 = rtlalc_9_3_ins.sff_m
* NET 572 = rtlalc_9_3_ins.nckr
* NET 573 = rtlalc_9_3_ins.ckr
* NET 574 = no2_x1_3_sig
* NET 576 = not_aux33
* NET 578 = na4_x1_2_sig
* NET 580 = aux33
* NET 582 = o3_x2_6_sig
* NET 587 = ao2o22_x2_3_sig
* NET 588 = cdh[2]
* NET 595 = not_cuh[2]
* NET 596 = not_cdm[2]
* NET 598 = no4_x1_4_sig
* NET 601 = not_aux37
* NET 602 = not_cdh[0]
* NET 606 = ao2o22_x2_4_sig
* NET 610 = not_aux41
* NET 611 = not_cdh[2]
* NET 612 = cdh[3]
* NET 617 = ao2o22_x2_2_sig
* NET 618 = cdh[1]
* NET 622 = not_aux14
* NET 623 = na2_x1_14_sig
* NET 625 = na2_x1_15_sig
* NET 626 = a3_x2_6_sig
* NET 628 = no2_x1_4_sig
* NET 631 = cum_3_ins.sff_s
* NET 632 = cum_3_ins.y
* NET 634 = cum_3_ins.sff_m
* NET 635 = noa22_x1_17_sig
* NET 637 = cum_3_ins.u
* NET 638 = cum_3_ins.ckr
* NET 639 = cum_3_ins.nckr
* NET 660 = cuh_1_ins.sff_s
* NET 662 = cuh_1_ins.y
* NET 664 = cuh_1_ins.u
* NET 666 = cuh_1_ins.sff_m
* NET 670 = not_aux32
* NET 671 = cuh_1_ins.ckr
* NET 672 = cuh_1_ins.nckr
* NET 673 = noa22_x1_9_sig
* NET 675 = na3_x1_9_sig
* NET 679 = oa22_x2_7_sig
* NET 681 = not_aux115
* NET 682 = not_aux48
* NET 683 = o3_x2_5_sig
* NET 685 = not_cdm[1]
* NET 690 = on12_x1_3_sig
* NET 693 = no2_x1_2_sig
* NET 694 = na2_x1_9_sig
* NET 695 = o3_x2_7_sig
* NET 701 = o2_x2_4_sig
* NET 706 = no4_x1_3_sig
* NET 707 = aux38
* NET 708 = o3_x2_4_sig
* NET 711 = not_cuh[1]
* NET 716 = cum_1_ins.sff_s
* NET 718 = cum_1_ins.y
* NET 719 = cum_1_ins.u
* NET 722 = cum_1_ins.sff_m
* NET 724 = cum_1_ins.ckr
* NET 725 = cum_1_ins.nckr
* NET 728 = not_cum[0]
* NET 730 = not_cuh[3]
* NET 731 = not_aux1
* NET 736 = not_cum[3]
* NET 740 = oa22_x2_17_sig
* NET 741 = on12_x1_7_sig
* NET 746 = xr2_x1_3_sig
* NET 750 = not_cdm[3]
* NET 758 = na3_x1_8_sig
* NET 759 = not_aux38
* NET 761 = not_cum[1]
* NET 762 = mbk_buf_not_cum[3]
* NET 766 = rtlalc_10_0_ins.ckr
* NET 767 = rtlalc_10_0_ins.nckr
* NET 768 = rtlalc_10_0_ins.sff_s
* NET 770 = rtlalc_10_0_ins.sff_m
* NET 771 = rtlalc_10_0_ins.y
* NET 774 = rtlalc_10_0_ins.u
* NET 778 = na2_x1_7_sig
* NET 779 = na4_x1_4_sig
* NET 780 = na2_x1_8_sig
* NET 785 = ao2o22_x2_5_sig
* NET 788 = not_aux43
* NET 793 = oa22_x2_6_sig
* NET 794 = on12_x1_2_sig
* NET 798 = a2_x2_3_sig
* NET 801 = cuh[0]
* NET 802 = cuh_0_ins.ckr
* NET 803 = cuh_0_ins.nckr
* NET 804 = cuh_0_ins.sff_m
* NET 806 = cuh_0_ins.sff_s
* NET 807 = cuh_0_ins.y
* NET 809 = noa22_x1_8_sig
* NET 812 = cuh_0_ins.u
* NET 818 = na3_x1_12_sig
* NET 819 = maquina
* NET 820 = nao22_x1_3_sig
* NET 823 = na3_x1_13_sig
* NET 824 = nao22_x1_4_sig
* NET 828 = o2_x2_6_sig
* NET 829 = not_aux68
* NET 830 = not_aux119
* NET 833 = not_cum[2]
* NET 834 = on12_x1_6_sig
* NET 839 = dh[0]
* NET 841 = uh[2]
* NET 843 = rtlalc_10[0]
* NET 845 = uh[1]
* NET 846 = uh[0]
* NET 848 = rtlalc_10[3]
* NET 850 = rtlalc_10_3_ins.sff_m
* NET 851 = rtlalc_10_3_ins.y
* NET 852 = rtlalc_10_3_ins.sff_s
* NET 854 = rtlalc_10_3_ins.u
* NET 855 = rtlalc_10_3_ins.ckr
* NET 856 = rtlalc_10_3_ins.nckr
* NET 860 = a2_x2_4_sig
* NET 861 = no3_x1_sig
* NET 862 = aux49
* NET 864 = rtlalc_10[2]
* NET 866 = rtlalc_10_2_ins.sff_s
* NET 867 = rtlalc_10_2_ins.y
* NET 868 = rtlalc_10_2_ins.u
* NET 870 = rtlalc_10_2_ins.sff_m
* NET 872 = rtlalc_10_2_ins.ckr
* NET 873 = rtlalc_10_2_ins.nckr
* NET 874 = a3_x2_sig
* NET 875 = nao22_x1_2_sig
* NET 878 = not_cuh[0]
* NET 880 = inv_x2_6_sig
* NET 881 = not_aux42
* NET 883 = oa22_x2_10_sig
* NET 884 = noa22_x1_12_sig
* NET 887 = oa22_x2_9_sig
* NET 889 = ao2o22_x2_8_sig
* NET 890 = mbk_buf_not_cuh[3]
* NET 893 = cuh[3]
* NET 895 = cuh_3_ins.sff_s
* NET 897 = cuh_3_ins.y
* NET 898 = noa22_x1_11_sig
* NET 899 = cuh_3_ins.u
* NET 900 = cuh_3_ins.sff_m
* NET 902 = cuh_3_ins.ckr
* NET 903 = cuh_3_ins.nckr
* NET 907 = nao2o22_x1_sig
* NET 908 = not_aux113
* NET 909 = a3_x2_5_sig
* NET 912 = aux69
* NET 915 = not_maquina
* NET 919 = mdh_1_ins.sff_m
* NET 920 = mdh_1_ins.sff_s
* NET 921 = mdh_1_ins.y
* NET 923 = mdh_1_ins.u
* NET 924 = mdh_1_ins.ckr
* NET 925 = mdh_1_ins.nckr
* NET 949 = dm[3]
* NET 950 = rtlalc_11[3]
* NET 952 = rtlalc_11_3_ins.y
* NET 954 = rtlalc_11_3_ins.sff_m
* NET 955 = rtlalc_11_3_ins.sff_s
* NET 957 = rtlalc_11_3_ins.u
* NET 959 = rtlalc_11_3_ins.ckr
* NET 962 = ao2o22_x2_12_sig
* NET 963 = rtlalc_11_3_ins.nckr
* NET 965 = cdm[3]
* NET 969 = rtlalc_10[1]
* NET 971 = rtlalc_10_1_ins.y
* NET 972 = rtlalc_10_1_ins.sff_s
* NET 975 = rtlalc_10_1_ins.u
* NET 977 = rtlalc_10_1_ins.sff_m
* NET 978 = rtlalc_10_1_ins.ckr
* NET 980 = rtlalc_9[0]
* NET 981 = rtlalc_10_1_ins.nckr
* NET 985 = rtlalc_9_0_ins.sff_s
* NET 986 = rtlalc_9_0_ins.y
* NET 988 = rtlalc_9_0_ins.ckr
* NET 989 = rtlalc_9_0_ins.u
* NET 991 = rtlalc_9_0_ins.sff_m
* NET 992 = rtlalc_9_0_ins.nckr
* NET 993 = ao2o22_x2_6_sig
* NET 995 = cuh[1]
* NET 1001 = ao2o22_x2_7_sig
* NET 1003 = cuh[2]
* NET 1007 = cdm[1]
* NET 1012 = ao2o22_x2_sig
* NET 1015 = cdh[0]
* NET 1018 = cum[1]
* NET 1024 = cum_2_ins.sff_s
* NET 1026 = cum_2_ins.y
* NET 1027 = oa22_x2_16_sig
* NET 1029 = cum_2_ins.sff_m
* NET 1031 = cum_2_ins.nckr
* NET 1032 = cum_2_ins.u
* NET 1033 = cum_2_ins.ckr
* NET 1042 = oa2a2a23_x2_sig
* NET 1043 = no2_x1_9_sig
* NET 1044 = aux77
* NET 1047 = no2_x1_7_sig
* NET 1050 = not_aux77
* NET 1052 = nao2o22_x1_2_sig
* NET 1057 = o4_x2_4_sig
* NET 1061 = dm[2]
* NET 1064 = rtlalc_11[2]
* NET 1066 = rtlalc_11_2_ins.sff_s
* NET 1067 = rtlalc_11_2_ins.y
* NET 1070 = rtlalc_11_2_ins.sff_m
* NET 1071 = rtlalc_11_2_ins.ckr
* NET 1072 = rtlalc_11_2_ins.nckr
* NET 1073 = rtlalc_11_2_ins.u
* NET 1075 = rtlalc_12[1]
* NET 1076 = rtlalc_12_1_ins.sff_s
* NET 1077 = ao2o22_x2_14_sig
* NET 1078 = rtlalc_12_1_ins.y
* NET 1079 = rtlalc_12_1_ins.u
* NET 1080 = rtlalc_12_1_ins.sff_m
* NET 1083 = rtlalc_12_1_ins.ckr
* NET 1084 = rtlalc_12_1_ins.nckr
* NET 1085 = ao2o22_x2_11_sig
* NET 1086 = cdm[2]
* NET 1092 = mdh_3_ins.sff_s
* NET 1093 = mdh_3_ins.y
* NET 1095 = mdh_3_ins.sff_m
* NET 1097 = mdh_3_ins.ckr
* NET 1098 = mdh_3_ins.nckr
* NET 1099 = mdh_3_ins.u
* NET 1100 = oa2ao222_x2_2_sig
* NET 1104 = aux122
* NET 1110 = xr2_x1_4_sig
* NET 1114 = mbk_buf_aux74
* NET 1115 = mdh[2]
* NET 1117 = mdh_2_ins.y
* NET 1118 = mdh_2_ins.sff_s
* NET 1119 = mdh_2_ins.sff_m
* NET 1122 = oa2a22_x2_sig
* NET 1123 = mdh_2_ins.u
* NET 1124 = mdh_2_ins.ckr
* NET 1125 = mdh_2_ins.nckr
* NET 1127 = na2_x1_17_sig
* NET 1128 = no2_x1_8_sig
* NET 1129 = na4_x1_6_sig
* NET 1133 = no3_x1_3_sig
* NET 1134 = na2_x1_19_sig
* NET 1157 = dm[1]
* NET 1160 = rtlalc_11_0_ins.y
* NET 1162 = rtlalc_11_0_ins.sff_s
* NET 1163 = rtlalc_11_0_ins.ckr
* NET 1164 = rtlalc_11_0_ins.u
* NET 1165 = rtlalc_11_0_ins.sff_m
* NET 1167 = ao2o22_x2_9_sig
* NET 1168 = rtlalc_11_0_ins.nckr
* NET 1169 = cdm[0]
* NET 1173 = cum[2]
* NET 1177 = not_mdh[2]
* NET 1178 = inv_x2_9_sig
* NET 1185 = no4_x1_6_sig
* NET 1187 = a2_x2_9_sig
* NET 1188 = xr2_x1_5_sig
* NET 1190 = rtlalc_11[1]
* NET 1192 = rtlalc_11_1_ins.sff_s
* NET 1193 = ao2o22_x2_10_sig
* NET 1194 = rtlalc_11_1_ins.y
* NET 1196 = rtlalc_11_1_ins.sff_m
* NET 1198 = rtlalc_11_1_ins.nckr
* NET 1199 = rtlalc_11_1_ins.ckr
* NET 1200 = rtlalc_11_1_ins.u
* NET 1201 = mdh[3]
* NET 1202 = a2_x2_8_sig
* NET 1204 = not_muh[0]
* NET 1206 = aux79
* NET 1207 = aux74
* NET 1208 = inv_x2_sig
* NET 1213 = mdh_0_ins.sff_s
* NET 1214 = mdh_0_ins.y
* NET 1216 = mdh_0_ins.sff_m
* NET 1218 = mdh_0_ins.u
* NET 1219 = mdh_0_ins.nckr
* NET 1220 = mdh_0_ins.ckr
* NET 1221 = oa22_x2_18_sig
* NET 1224 = a3_x2_7_sig
* NET 1225 = aux70
* NET 1226 = inv_x2_8_sig
* NET 1228 = dm[0]
* NET 1229 = rtlalc_11[0]
* NET 1234 = rtlalc_12_3_ins.u
* NET 1235 = rtlalc_12_3_ins.ckr
* NET 1238 = rtlalc_12_3_ins.nckr
* NET 1239 = cum[0]
* NET 1241 = oa2a22_x2_5_sig
* NET 1243 = not_ctrl
* NET 1244 = ctrl
* NET 1245 = cum[3]
* NET 1257 = nao22_x1_7_sig
* NET 1259 = mdm_0_ins.ckr
* NET 1260 = mdm_0_ins.u
* NET 1264 = mdm_0_ins.nckr
* NET 1265 = aux123
* NET 1267 = not_aux87
* NET 1271 = na4_x1_sig
* NET 1276 = no2_x1_6_sig
* NET 1281 = no3_x1_2_sig
* NET 1282 = mbk_buf_not_aux74
* NET 1286 = nao22_x1_5_sig
* NET 1288 = na2_x1_18_sig
* NET 1293 = o4_x2_5_sig
* NET 1296 = rtlalc_12_3_ins.sff_s
* NET 1297 = rtlalc_12_3_ins.y
* NET 1298 = rtlalc_12_3_ins.sff_m
* NET 1308 = mdm[0]
* NET 1310 = nxr2_x1_3_sig
* NET 1311 = mdm_0_ins.sff_s
* NET 1313 = mdm_0_ins.y
* NET 1314 = mdm_0_ins.sff_m
* NET 1325 = mdh[1]
* NET 1326 = mdh[0]
* NET 1333 = not_aux74
* NET 1337 = na2_x1_16_sig
* NET 1338 = a3_x2_8_sig
* NET 1344 = rtlalc_12[3]
* NET 1345 = um[3]
* NET 1349 = rtlalc_12[0]
* NET 1350 = rtlalc_12_0_ins.y
* NET 1351 = rtlalc_12_0_ins.sff_s
* NET 1353 = ao2o22_x2_13_sig
* NET 1354 = rtlalc_12_0_ins.u
* NET 1356 = rtlalc_12_0_ins.sff_m
* NET 1357 = rtlalc_12_0_ins.ckr
* NET 1359 = rtlalc_12[2]
* NET 1360 = rtlalc_12_0_ins.nckr
* NET 1361 = rtlalc_12_2_ins.y
* NET 1363 = rtlalc_12_2_ins.sff_s
* NET 1365 = ao2o22_x2_15_sig
* NET 1366 = rtlalc_12_2_ins.u
* NET 1368 = rtlalc_12_2_ins.sff_m
* NET 1369 = rtlalc_12_2_ins.ckr
* NET 1370 = o3_x2_12_sig
* NET 1371 = rtlalc_12_2_ins.nckr
* NET 1375 = na2_x1_23_sig
* NET 1376 = not_aux98
* NET 1380 = aux98
* NET 1382 = on12_x1_8_sig
* NET 1384 = nao2o22_x1_4_sig
* NET 1387 = mdm_2_ins.y
* NET 1388 = mdm_2_ins.sff_s
* NET 1390 = oa22_x2_20_sig
* NET 1391 = mdm_2_ins.u
* NET 1394 = mdm_2_ins.sff_m
* NET 1395 = mdm_2_ins.ckr
* NET 1396 = mdm_2_ins.nckr
* NET 1400 = no4_x1_7_sig
* NET 1403 = no2_x1_13_sig
* NET 1405 = na4_x1_5_sig
* NET 1406 = o2_x2_10_sig
* NET 1409 = not_aux120
* NET 1410 = not_muh[3]
* NET 1414 = not_aux76
* NET 1415 = no2_x1_5_sig
* NET 1417 = not_aux75
* NET 1421 = muh_3_ins.sff_s
* NET 1422 = muh_3_ins.y
* NET 1424 = muh_3_ins.sff_m
* NET 1425 = oa2a22_x2_3_sig
* NET 1426 = muh_3_ins.u
* NET 1428 = muh_3_ins.nckr
* NET 1429 = muh_3_ins.ckr
* NET 1442 = aux124
* NET 1453 = no4_x1_8_sig
* NET 1468 = inv_x2_11_sig
* NET 1474 = um[2]
* NET 1475 = mdm_3_ins.sff_s
* NET 1476 = mdm_3_ins.sff_m
* NET 1477 = mdm_3_ins.y
* NET 1479 = mdm_3_ins.ckr
* NET 1480 = mdm_3_ins.u
* NET 1484 = mdm_3_ins.nckr
* NET 1485 = aux108
* NET 1487 = oa2a22_x2_4_sig
* NET 1489 = no2_x1_14_sig
* NET 1495 = xr2_x1_8_sig
* NET 1498 = aux105
* NET 1500 = not_aux105
* NET 1501 = an12_x1_4_sig
* NET 1502 = not_aux130
* NET 1504 = not_aux127
* NET 1506 = o2_x2_11_sig
* NET 1508 = not_aux106
* NET 1510 = mdm_1_ins.sff_s
* NET 1513 = mdm_1_ins.ckr
* NET 1514 = mdm_1_ins.u
* NET 1515 = mdm_1_ins.sff_m
* NET 1517 = mdm_1_ins.y
* NET 1518 = mdm_1_ins.nckr
* NET 1519 = nao2o22_x1_3_sig
* NET 1520 = na3_x1_sig
* NET 1523 = no2_x1_12_sig
* NET 1524 = na2_x1_21_sig
* NET 1528 = na4_x1_7_sig
* NET 1530 = na2_x1_22_sig
* NET 1535 = nxr2_x1_2_sig
* NET 1536 = not_aux78
* NET 1538 = nao22_x1_6_sig
* NET 1542 = muh_2_ins.sff_s
* NET 1543 = muh[2]
* NET 1544 = muh_2_ins.sff_m
* NET 1545 = muh_2_ins.ckr
* NET 1547 = muh_2_ins.y
* NET 1548 = muh_2_ins.nckr
* NET 1549 = muh_2_ins.u
* NET 1550 = oa2ao222_x2_4_sig
* NET 1552 = mum_1_ins.sff_s
* NET 1554 = mum_1_ins.y
* NET 1556 = mum_1_ins.sff_m
* NET 1558 = mum_1_ins.nckr
* NET 1559 = mum_1_ins.u
* NET 1560 = mum_1_ins.ckr
* NET 1562 = oa22_x2_21_sig
* NET 1564 = a3_x2_9_sig
* NET 1567 = o2_x2_12_sig
* NET 1569 = mdm[3]
* NET 1570 = not_mum[0]
* NET 1574 = not_mdm[0]
* NET 1575 = not_mum[3]
* NET 1578 = not_aux109
* NET 1579 = not_aux89
* NET 1581 = mdm[2]
* NET 1582 = not_aux73
* NET 1585 = not_mdm[1]
* NET 1586 = muh[3]
* NET 1587 = na2_x1_20_sig
* NET 1590 = no3_x1_4_sig
* NET 1594 = not_aux103
* NET 1596 = o2_x2_9_sig
* NET 1598 = noa22_x1_20_sig
* NET 1600 = a2_x2_12_sig
* NET 1601 = not_mdm[2]
* NET 1602 = not_aux96
* NET 1605 = not_mdh[0]
* NET 1607 = um[1]
* NET 1629 = mum_0_ins.y
* NET 1630 = mum_0_ins.sff_s
* NET 1633 = mum_0_ins.u
* NET 1635 = mum_0_ins.sff_m
* NET 1639 = mum_0_ins.nckr
* NET 1640 = mum_0_ins.ckr
* NET 1641 = aux111
* NET 1646 = aux110
* NET 1650 = mum[0]
* NET 1654 = aux73
* NET 1657 = mbk_buf_aux73
* NET 1664 = xr2_x1_6_sig
* NET 1670 = no2_x1_10_sig
* NET 1672 = not_aux90
* NET 1673 = a2_x2_10_sig
* NET 1677 = mbk_buf_not_mum[3]
* NET 1681 = muh_0_ins.y
* NET 1684 = muh_0_ins.sff_m
* NET 1686 = muh_0_ins.sff_s
* NET 1687 = oa2a22_x2_2_sig
* NET 1688 = muh_0_ins.u
* NET 1689 = muh_0_ins.ckr
* NET 1690 = muh_0_ins.nckr
* NET 1695 = a2_x2_sig
* NET 1696 = not_aux102
* NET 1701 = na2_x1_sig
* NET 1707 = a2_x2_11_sig
* NET 1708 = rst
* NET 1709 = not_aux121
* NET 1710 = mdm[1]
* NET 1715 = not_aux125
* NET 1716 = o3_x2_11_sig
* NET 1719 = o2_x2_8_sig
* NET 1722 = oa22_x2_19_sig
* NET 1726 = o2_x2_7_sig
* NET 1727 = vss
* NET 1728 = um[0]
* NET 1730 = mum_2_ins.sff_s
* NET 1731 = mum_2_ins.y
* NET 1733 = mum_2_ins.u
* NET 1735 = mum_2_ins.sff_m
* NET 1736 = oa22_x2_22_sig
* NET 1737 = mum_2_ins.nckr
* NET 1738 = mum_2_ins.ckr
* NET 1739 = mx2_x2_sig
* NET 1742 = a3_x2_10_sig
* NET 1746 = mum_3_ins.sff_s
* NET 1747 = mum_3_ins.y
* NET 1748 = mum_3_ins.ckr
* NET 1749 = mum_3_ins.u
* NET 1751 = mum_3_ins.sff_m
* NET 1752 = mum[3]
* NET 1753 = mum_3_ins.nckr
* NET 1757 = xr2_x1_9_sig
* NET 1758 = not_rst
* NET 1759 = oa22_x2_23_sig
* NET 1762 = na3_x1_15_sig
* NET 1764 = nao22_x1_8_sig
* NET 1765 = a3_x2_11_sig
* NET 1766 = inv_x2_12_sig
* NET 1767 = aux112
* NET 1769 = mbk_buf_mum[0]
* NET 1770 = na2_x1_24_sig
* NET 1771 = mum[1]
* NET 1772 = mum[2]
* NET 1776 = not_muh[2]
* NET 1778 = not_aux91
* NET 1780 = not_aux97
* NET 1781 = a2_x2_13_sig
* NET 1783 = not_mum[2]
* NET 1784 = no2_x1_11_sig
* NET 1785 = not_mum[1]
* NET 1786 = muh[0]
* NET 1790 = not_aux93
* NET 1791 = o3_x2_10_sig
* NET 1792 = not_muh[1]
* NET 1793 = na3_x1_14_sig
* NET 1795 = noa22_x1_18_sig
* NET 1796 = noa22_x1_19_sig
* NET 1797 = xr2_x1_7_sig
* NET 1801 = not_aux129
* NET 1802 = inv_x2_10_sig
* NET 1804 = muh_1_ins.sff_s
* NET 1805 = muh_1_ins.y
* NET 1807 = muh_1_ins.sff_m
* NET 1808 = muh[1]
* NET 1809 = oa2ao222_x2_3_sig
* NET 1810 = clk
* NET 1812 = muh_1_ins.u
* NET 1813 = muh_1_ins.ckr
* NET 1814 = vdd
* NET 1815 = muh_1_ins.nckr
Mtr_03624 1814 1791 1794 1814 tp L=1U W=20U AS=40P AD=40P PS=44U PD=44U 
Mtr_03623 1795 1793 1794 1814 tp L=1U W=20U AS=40P AD=40P PS=44U PD=44U 
Mtr_03622 1794 1792 1795 1814 tp L=1U W=20U AS=40P AD=40P PS=44U PD=44U 
Mtr_03621 1802 1801 1814 1814 tp L=1U W=15U AS=30P AD=30P PS=34U PD=34U 
Mtr_03620 1809 1798 1814 1814 tp L=1U W=20U AS=40P AD=40P PS=44U PD=44U 
Mtr_03619 1800 1795 1799 1814 tp L=1U W=20U AS=40P AD=40P PS=44U PD=44U 
Mtr_03618 1800 1802 1814 1814 tp L=1U W=14.5U AS=29P AD=29P PS=33U PD=33U 
Mtr_03617 1814 1808 1800 1814 tp L=1U W=14.5U AS=29P AD=29P PS=33U PD=33U 
Mtr_03616 1799 1796 1798 1814 tp L=1U W=20U AS=40P AD=40P PS=44U PD=44U 
Mtr_03615 1798 1797 1800 1814 tp L=1U W=20U AS=40P AD=40P PS=44U PD=44U 
Mtr_03614 1787 1786 1814 1814 tp L=1U W=10U AS=20P AD=20P PS=24U PD=24U 
Mtr_03613 1814 1808 1788 1814 tp L=1U W=10U AS=20P AD=20P PS=24U PD=24U 
Mtr_03612 1797 1787 1789 1814 tp L=1U W=20U AS=40P AD=40P PS=44U PD=44U 
Mtr_03611 1789 1808 1814 1814 tp L=1U W=20U AS=40P AD=40P PS=44U PD=44U 
Mtr_03610 1789 1788 1797 1814 tp L=1U W=20U AS=40P AD=40P PS=44U PD=44U 
Mtr_03609 1814 1786 1789 1814 tp L=1U W=20U AS=40P AD=40P PS=44U PD=44U 
Mtr_03608 1803 1808 1814 1814 tp L=1U W=10U AS=20P AD=20P PS=24U PD=24U 
Mtr_03607 1804 1813 1803 1814 tp L=1U W=10U AS=20P AD=20P PS=24U PD=24U 
Mtr_03606 1805 1815 1804 1814 tp L=1U W=10U AS=20P AD=20P PS=24U PD=24U 
Mtr_03605 1807 1815 1806 1814 tp L=1U W=10U AS=20P AD=20P PS=24U PD=24U 
Mtr_03604 1806 1805 1814 1814 tp L=1U W=10U AS=20P AD=20P PS=24U PD=24U 
Mtr_03603 1811 1813 1807 1814 tp L=1U W=10U AS=20P AD=20P PS=24U PD=24U 
Mtr_03602 1815 1810 1814 1814 tp L=1U W=10U AS=20P AD=20P PS=24U PD=24U 
Mtr_03601 1814 1815 1813 1814 tp L=1U W=10U AS=20P AD=20P PS=24U PD=24U 
Mtr_03600 1812 1809 1814 1814 tp L=1U W=10U AS=20P AD=20P PS=24U PD=24U 
Mtr_03599 1814 1812 1811 1814 tp L=1U W=10U AS=20P AD=20P PS=24U PD=24U 
Mtr_03598 1814 1804 1808 1814 tp L=1U W=20U AS=40P AD=40P PS=44U PD=44U 
Mtr_03597 1808 1804 1814 1814 tp L=1U W=20U AS=40P AD=40P PS=44U PD=44U 
Mtr_03596 1805 1807 1814 1814 tp L=1U W=10U AS=20P AD=20P PS=24U PD=24U 
Mtr_03595 1779 1778 1784 1814 tp L=1U W=20U AS=40P AD=40P PS=44U PD=44U 
Mtr_03594 1814 1780 1779 1814 tp L=1U W=20U AS=40P AD=40P PS=44U PD=44U 
Mtr_03593 1814 1778 1774 1814 tp L=1U W=15U AS=30P AD=30P PS=34U PD=34U 
Mtr_03592 1774 1772 1773 1814 tp L=1U W=15U AS=30P AD=30P PS=34U PD=34U 
Mtr_03591 1773 1771 1775 1814 tp L=1U W=15U AS=30P AD=30P PS=34U PD=34U 
Mtr_03590 1790 1775 1814 1814 tp L=1U W=20U AS=40P AD=40P PS=44U PD=44U 
Mtr_03589 1814 1785 1793 1814 tp L=1U W=10U AS=20P AD=20P PS=24U PD=24U 
Mtr_03588 1793 1783 1814 1814 tp L=1U W=10U AS=20P AD=20P PS=24U PD=24U 
Mtr_03587 1793 1784 1814 1814 tp L=1U W=10U AS=20P AD=20P PS=24U PD=24U 
Mtr_03586 1780 1777 1814 1814 tp L=1U W=20U AS=40P AD=40P PS=44U PD=44U 
Mtr_03585 1814 1776 1777 1814 tp L=1U W=10U AS=20P AD=20P PS=24U PD=24U 
Mtr_03584 1777 1786 1814 1814 tp L=1U W=10U AS=20P AD=20P PS=24U PD=24U 
Mtr_03583 1781 1782 1814 1814 tp L=1U W=20U AS=40P AD=40P PS=44U PD=44U 
Mtr_03582 1814 1792 1782 1814 tp L=1U W=10U AS=20P AD=20P PS=24U PD=24U 
Mtr_03581 1782 1780 1814 1814 tp L=1U W=10U AS=20P AD=20P PS=24U PD=24U 
Mtr_03580 1770 1769 1814 1814 tp L=1U W=10U AS=20P AD=20P PS=24U PD=24U 
Mtr_03579 1814 1783 1770 1814 tp L=1U W=10U AS=20P AD=20P PS=24U PD=24U 
Mtr_03578 1814 1761 1759 1814 tp L=1U W=20U AS=40P AD=40P PS=44U PD=44U 
Mtr_03577 1760 1765 1814 1814 tp L=1U W=10U AS=20P AD=20P PS=24U PD=24U 
Mtr_03576 1760 1764 1761 1814 tp L=1U W=10U AS=20P AD=20P PS=24U PD=24U 
Mtr_03575 1761 1771 1760 1814 tp L=1U W=10U AS=20P AD=20P PS=24U PD=24U 
Mtr_03574 1814 1770 1768 1814 tp L=1U W=10U AS=20P AD=20P PS=24U PD=24U 
Mtr_03573 1765 1768 1814 1814 tp L=1U W=20U AS=40P AD=40P PS=44U PD=44U 
Mtr_03572 1814 1767 1768 1814 tp L=1U W=10U AS=20P AD=20P PS=24U PD=24U 
Mtr_03571 1768 1785 1814 1814 tp L=1U W=10U AS=20P AD=20P PS=24U PD=24U 
Mtr_03570 1814 1762 1764 1814 tp L=1U W=20U AS=40P AD=40P PS=44U PD=44U 
Mtr_03569 1763 1772 1814 1814 tp L=1U W=20U AS=40P AD=40P PS=44U PD=44U 
Mtr_03568 1764 1766 1763 1814 tp L=1U W=20U AS=40P AD=40P PS=44U PD=44U 
Mtr_03567 1766 1767 1814 1814 tp L=1U W=15U AS=30P AD=30P PS=34U PD=34U 
Mtr_03566 1754 1752 1814 1814 tp L=1U W=10U AS=20P AD=20P PS=24U PD=24U 
Mtr_03565 1814 1769 1755 1814 tp L=1U W=10U AS=20P AD=20P PS=24U PD=24U 
Mtr_03564 1757 1754 1756 1814 tp L=1U W=20U AS=40P AD=40P PS=44U PD=44U 
Mtr_03563 1756 1769 1814 1814 tp L=1U W=20U AS=40P AD=40P PS=44U PD=44U 
Mtr_03562 1756 1755 1757 1814 tp L=1U W=20U AS=40P AD=40P PS=44U PD=44U 
Mtr_03561 1814 1752 1756 1814 tp L=1U W=20U AS=40P AD=40P PS=44U PD=44U 
Mtr_03560 1814 1772 1762 1814 tp L=1U W=10U AS=20P AD=20P PS=24U PD=24U 
Mtr_03559 1762 1757 1814 1814 tp L=1U W=10U AS=20P AD=20P PS=24U PD=24U 
Mtr_03558 1762 1758 1814 1814 tp L=1U W=10U AS=20P AD=20P PS=24U PD=24U 
Mtr_03557 1745 1752 1814 1814 tp L=1U W=10U AS=20P AD=20P PS=24U PD=24U 
Mtr_03556 1746 1748 1745 1814 tp L=1U W=10U AS=20P AD=20P PS=24U PD=24U 
Mtr_03555 1747 1753 1746 1814 tp L=1U W=10U AS=20P AD=20P PS=24U PD=24U 
Mtr_03554 1751 1753 1744 1814 tp L=1U W=10U AS=20P AD=20P PS=24U PD=24U 
Mtr_03553 1744 1747 1814 1814 tp L=1U W=10U AS=20P AD=20P PS=24U PD=24U 
Mtr_03552 1750 1748 1751 1814 tp L=1U W=10U AS=20P AD=20P PS=24U PD=24U 
Mtr_03551 1753 1810 1814 1814 tp L=1U W=10U AS=20P AD=20P PS=24U PD=24U 
Mtr_03550 1814 1753 1748 1814 tp L=1U W=10U AS=20P AD=20P PS=24U PD=24U 
Mtr_03549 1749 1759 1814 1814 tp L=1U W=10U AS=20P AD=20P PS=24U PD=24U 
Mtr_03548 1814 1749 1750 1814 tp L=1U W=10U AS=20P AD=20P PS=24U PD=24U 
Mtr_03547 1814 1746 1752 1814 tp L=1U W=20U AS=40P AD=40P PS=44U PD=44U 
Mtr_03546 1752 1746 1814 1814 tp L=1U W=20U AS=40P AD=40P PS=44U PD=44U 
Mtr_03545 1747 1751 1814 1814 tp L=1U W=10U AS=20P AD=20P PS=24U PD=24U 
Mtr_03544 1814 1785 1743 1814 tp L=1U W=10U AS=20P AD=20P PS=24U PD=24U 
Mtr_03543 1742 1743 1814 1814 tp L=1U W=20U AS=40P AD=40P PS=44U PD=44U 
Mtr_03542 1814 1758 1743 1814 tp L=1U W=10U AS=20P AD=20P PS=24U PD=24U 
Mtr_03541 1743 1772 1814 1814 tp L=1U W=10U AS=20P AD=20P PS=24U PD=24U 
Mtr_03540 1729 1772 1814 1814 tp L=1U W=10U AS=20P AD=20P PS=24U PD=24U 
Mtr_03539 1730 1738 1729 1814 tp L=1U W=10U AS=20P AD=20P PS=24U PD=24U 
Mtr_03538 1731 1737 1730 1814 tp L=1U W=10U AS=20P AD=20P PS=24U PD=24U 
Mtr_03537 1735 1737 1734 1814 tp L=1U W=10U AS=20P AD=20P PS=24U PD=24U 
Mtr_03536 1734 1731 1814 1814 tp L=1U W=10U AS=20P AD=20P PS=24U PD=24U 
Mtr_03535 1732 1738 1735 1814 tp L=1U W=10U AS=20P AD=20P PS=24U PD=24U 
Mtr_03534 1737 1810 1814 1814 tp L=1U W=10U AS=20P AD=20P PS=24U PD=24U 
Mtr_03533 1814 1737 1738 1814 tp L=1U W=10U AS=20P AD=20P PS=24U PD=24U 
Mtr_03532 1733 1736 1814 1814 tp L=1U W=10U AS=20P AD=20P PS=24U PD=24U 
Mtr_03531 1814 1733 1732 1814 tp L=1U W=10U AS=20P AD=20P PS=24U PD=24U 
Mtr_03530 1814 1730 1772 1814 tp L=1U W=20U AS=40P AD=40P PS=44U PD=44U 
Mtr_03529 1772 1730 1814 1814 tp L=1U W=20U AS=40P AD=40P PS=44U PD=44U 
Mtr_03528 1731 1735 1814 1814 tp L=1U W=10U AS=20P AD=20P PS=24U PD=24U 
Mtr_03527 1814 1741 1736 1814 tp L=1U W=20U AS=40P AD=40P PS=44U PD=44U 
Mtr_03526 1740 1742 1814 1814 tp L=1U W=10U AS=20P AD=20P PS=24U PD=24U 
Mtr_03525 1740 1739 1741 1814 tp L=1U W=10U AS=20P AD=20P PS=24U PD=24U 
Mtr_03524 1741 1771 1740 1814 tp L=1U W=10U AS=20P AD=20P PS=24U PD=24U 
Mtr_03523 1814 1758 1801 1814 tp L=1U W=20U AS=40P AD=40P PS=44U PD=44U 
Mtr_03522 1625 1790 1814 1814 tp L=1U W=20U AS=40P AD=40P PS=44U PD=44U 
Mtr_03521 1801 1710 1625 1814 tp L=1U W=20U AS=40P AD=40P PS=44U PD=44U 
Mtr_03520 1814 1716 1626 1814 tp L=1U W=20U AS=40P AD=40P PS=44U PD=44U 
Mtr_03519 1796 1722 1626 1814 tp L=1U W=20U AS=40P AD=40P PS=44U PD=44U 
Mtr_03518 1626 1715 1796 1814 tp L=1U W=20U AS=40P AD=40P PS=44U PD=44U 
Mtr_03517 1707 1704 1814 1814 tp L=1U W=20U AS=40P AD=40P PS=44U PD=44U 
Mtr_03516 1814 1792 1704 1814 tp L=1U W=10U AS=20P AD=20P PS=24U PD=24U 
Mtr_03515 1704 1790 1814 1814 tp L=1U W=10U AS=20P AD=20P PS=24U PD=24U 
Mtr_03514 1814 1721 1722 1814 tp L=1U W=20U AS=40P AD=40P PS=44U PD=44U 
Mtr_03513 1627 1726 1814 1814 tp L=1U W=10U AS=20P AD=20P PS=24U PD=24U 
Mtr_03512 1627 1719 1721 1814 tp L=1U W=10U AS=20P AD=20P PS=24U PD=24U 
Mtr_03511 1721 1776 1627 1814 tp L=1U W=10U AS=20P AD=20P PS=24U PD=24U 
Mtr_03510 1814 1708 1624 1814 tp L=1U W=15U AS=30P AD=30P PS=34U PD=34U 
Mtr_03509 1624 1709 1623 1814 tp L=1U W=15U AS=30P AD=30P PS=34U PD=34U 
Mtr_03508 1623 1707 1711 1814 tp L=1U W=15U AS=30P AD=30P PS=34U PD=34U 
Mtr_03507 1716 1711 1814 1814 tp L=1U W=20U AS=40P AD=40P PS=44U PD=44U 
Mtr_03506 1792 1808 1814 1814 tp L=1U W=15U AS=30P AD=30P PS=34U PD=34U 
Mtr_03505 1814 1772 1622 1814 tp L=1U W=15U AS=30P AD=30P PS=34U PD=34U 
Mtr_03504 1622 1701 1621 1814 tp L=1U W=15U AS=30P AD=30P PS=34U PD=34U 
Mtr_03503 1621 1695 1697 1814 tp L=1U W=15U AS=30P AD=30P PS=34U PD=34U 
Mtr_03502 1696 1697 1814 1814 tp L=1U W=20U AS=40P AD=40P PS=44U PD=44U 
Mtr_03501 1628 1771 1724 1814 tp L=1U W=15U AS=30P AD=30P PS=34U PD=34U 
Mtr_03500 1814 1772 1628 1814 tp L=1U W=15U AS=30P AD=30P PS=34U PD=34U 
Mtr_03499 1726 1724 1814 1814 tp L=1U W=20U AS=40P AD=40P PS=44U PD=44U 
Mtr_03498 1695 1693 1814 1814 tp L=1U W=20U AS=40P AD=40P PS=44U PD=44U 
Mtr_03497 1814 1776 1693 1814 tp L=1U W=10U AS=20P AD=20P PS=24U PD=24U 
Mtr_03496 1693 1778 1814 1814 tp L=1U W=10U AS=20P AD=20P PS=24U PD=24U 
Mtr_03495 1701 1758 1814 1814 tp L=1U W=10U AS=20P AD=20P PS=24U PD=24U 
Mtr_03494 1814 1785 1701 1814 tp L=1U W=10U AS=20P AD=20P PS=24U PD=24U 
Mtr_03493 1657 1655 1814 1814 tp L=1U W=20U AS=40P AD=40P PS=44U PD=44U 
Mtr_03492 1814 1654 1655 1814 tp L=1U W=6U AS=12P AD=12P PS=16U PD=16U 
Mtr_03491 1785 1771 1814 1814 tp L=1U W=15U AS=30P AD=30P PS=34U PD=34U 
Mtr_03490 1783 1772 1814 1814 tp L=1U W=15U AS=30P AD=30P PS=34U PD=34U 
Mtr_03489 1658 1786 1814 1814 tp L=1U W=10U AS=20P AD=20P PS=24U PD=24U 
Mtr_03488 1814 1657 1660 1814 tp L=1U W=10U AS=20P AD=20P PS=24U PD=24U 
Mtr_03487 1664 1658 1614 1814 tp L=1U W=20U AS=40P AD=40P PS=44U PD=44U 
Mtr_03486 1614 1657 1814 1814 tp L=1U W=20U AS=40P AD=40P PS=44U PD=44U 
Mtr_03485 1614 1660 1664 1814 tp L=1U W=20U AS=40P AD=40P PS=44U PD=44U 
Mtr_03484 1814 1786 1614 1814 tp L=1U W=20U AS=40P AD=40P PS=44U PD=44U 
Mtr_03483 1617 1677 1767 1814 tp L=1U W=20U AS=40P AD=40P PS=44U PD=44U 