* Spice description of mul5b_cougar
* Spice driver version -1209024860
* Date ( dd/mm/yyyy hh:mm:ss ): 28/10/2020 at 15:56:22

* INTERF vdd vss x[0] x[1] x[2] x[3] x[4] y[0] y[1] y[2] y[3] y[4] z[0] z[1] 
* INTERF z[2] z[3] z[4] z[5] z[6] z[7] z[8] z[9] 


.subckt mul5b_cougar 2127 2044 2113 2108 2125 2122 2123 2055 2058 1849 1457 1541 1933 1735 1538 1194 1446 1243 1120 480 235 567 
* NET 18 = xr2_x1_3_sig
* NET 23 = a2_x2_25_sig
* NET 24 = nao22_x1_37_sig
* NET 27 = na3_x1_22_sig
* NET 31 = na2_x1_35_sig
* NET 34 = na2_x1_33_sig
* NET 36 = na3_x1_23_sig
* NET 41 = on12_x1_6_sig
* NET 42 = aux6
* NET 44 = na4_x1_7_sig
* NET 48 = nao22_x1_40_sig
* NET 49 = ao22_x2_31_sig
* NET 52 = a2_x2_28_sig
* NET 57 = mx2_x2_6_sig
* NET 61 = aux214
* NET 62 = a3_x2_11_sig
* NET 69 = aux213
* NET 71 = na3_x1_24_sig
* NET 74 = na3_x1_25_sig
* NET 77 = o3_x2_10_sig
* NET 107 = not_aux8
* NET 110 = aux4
* NET 113 = ao22_x2_30_sig
* NET 116 = inv_x2_36_sig
* NET 117 = nao22_x1_38_sig
* NET 119 = a2_x2_26_sig
* NET 122 = not_aux211
* NET 126 = aux217
* NET 128 = on12_x1_4_sig
* NET 129 = no2_x1_17_sig
* NET 130 = na3_x1_21_sig
* NET 131 = na3_x1_20_sig
* NET 134 = ao22_x2_29_sig
* NET 137 = inv_x2_35_sig
* NET 138 = oa22_x2_19_sig
* NET 141 = na2_x1_34_sig
* NET 143 = nao22_x1_36_sig
* NET 144 = o3_x2_9_sig
* NET 148 = na3_x1_26_sig
* NET 149 = inv_x2_34_sig
* NET 150 = aux101
* NET 152 = na2_x1_31_sig
* NET 154 = nao22_x1_39_sig
* NET 155 = aux212
* NET 162 = inv_x2_5_sig
* NET 167 = a2_x2_3_sig
* NET 168 = aux5
* NET 169 = nao22_x1_sig
* NET 173 = inv_x2_4_sig
* NET 179 = aux198
* NET 182 = na4_x1_6_sig
* NET 184 = noa22_x1_13_sig
* NET 186 = na2_x1_36_sig
* NET 195 = not_aux6
* NET 198 = not_aux195
* NET 199 = ao22_x2_26_sig
* NET 200 = inv_x2_31_sig
* NET 205 = aux180
* NET 206 = aux181
* NET 214 = not_aux197
* NET 217 = inv_x2_33_sig
* NET 220 = noa22_x1_12_sig
* NET 221 = a4_x2_3_sig
* NET 230 = aux184
* NET 235 = z[8]
* NET 266 = not_aux227
* NET 272 = not_aux3
* NET 273 = inv_x2_3_sig
* NET 279 = a3_x2_10_sig
* NET 280 = no4_x1_2_sig
* NET 281 = a2_x2_27_sig
* NET 286 = no4_x1_3_sig
* NET 287 = a2_x2_24_sig
* NET 290 = nao22_x1_35_sig
* NET 291 = o2_x2_18_sig
* NET 295 = o3_x2_8_sig
* NET 296 = na2_x1_28_sig
* NET 297 = na3_x1_17_sig
* NET 298 = na4_x1_4_sig
* NET 301 = oa22_x2_16_sig
* NET 304 = not_aux225
* NET 305 = a2_x2_29_sig
* NET 308 = aux98
* NET 310 = not_aux149
* NET 313 = an12_x1_9_sig
* NET 315 = nao22_x1_34_sig
* NET 316 = nao22_x1_33_sig
* NET 317 = na4_x1_5_sig
* NET 318 = na2_x1_30_sig
* NET 319 = o2_x2_16_sig
* NET 320 = na3_x1_18_sig
* NET 323 = no2_x1_15_sig
* NET 324 = na3_x1_19_sig
* NET 325 = o2_x2_17_sig
* NET 330 = oa22_x2_17_sig
* NET 334 = not_aux1
* NET 343 = na2_x1_29_sig
* NET 345 = no4_x1_sig
* NET 348 = oa2a22_x2_6_sig
* NET 355 = not_aux154
* NET 359 = no2_x1_18_sig
* NET 362 = not_aux210
* NET 363 = aux207
* NET 368 = inv_x2_32_sig
* NET 377 = oa2ao222_x2_sig
* NET 381 = inv_x2_2_sig
* NET 386 = not_aux194
* NET 389 = not_aux23
* NET 390 = not_aux222
* NET 396 = a2_x2_23_sig
* NET 399 = a3_x2_9_sig
* NET 410 = xr2_x1_4_sig
* NET 411 = aux216
* NET 416 = a2_x2_21_sig
* NET 423 = aux87
* NET 429 = aux210
* NET 433 = na3_x1_16_sig
* NET 434 = na3_x1_15_sig
* NET 438 = ao22_x2_28_sig
* NET 443 = na2_x1_5_sig
* NET 452 = xr2_x1_6_sig
* NET 453 = aux29
* NET 457 = aux47
* NET 461 = no2_x1_19_sig
* NET 464 = no3_x1_4_sig
* NET 465 = aux61
* NET 468 = na2_x1_37_sig
* NET 469 = on12_x1_5_sig
* NET 474 = aux223
* NET 476 = nao22_x1_24_sig
* NET 477 = ao2o22_x2_sig
* NET 479 = oa22_x2_14_sig
* NET 480 = z[7]
* NET 488 = oa2a22_x2_5_sig
* NET 491 = o3_x2_7_sig
* NET 494 = o3_x2_6_sig
* NET 495 = no3_x1_2_sig
* NET 497 = oa22_x2_12_sig
* NET 498 = no2_x1_14_sig
* NET 501 = ao22_x2_27_sig
* NET 502 = na2_x1_26_sig
* NET 503 = na3_x1_14_sig
* NET 507 = no3_x1_3_sig
* NET 511 = noa2ao222_x1_sig
* NET 512 = na3_x1_13_sig
* NET 515 = an12_x1_8_sig
* NET 516 = no2_x1_13_sig
* NET 518 = na2_x1_27_sig
* NET 519 = not_aux208
* NET 522 = o2_x2_15_sig
* NET 524 = noa22_x1_11_sig
* NET 525 = nao22_x1_32_sig
* NET 527 = aux204
* NET 529 = a3_x2_8_sig
* NET 560 = a3_x2_12_sig
* NET 563 = o4_x2_sig
* NET 566 = noa22_x1_14_sig
* NET 567 = z[9]
* NET 574 = noa2ao222_x1_2_sig
* NET 576 = aux23
* NET 578 = oa22_x2_18_sig
* NET 579 = nao22_x1_42_sig
* NET 580 = ao22_x2_32_sig
* NET 583 = not_aux196
* NET 588 = not_aux209
* NET 589 = no3_x1_5_sig
* NET 590 = no2_x1_20_sig
* NET 596 = oa22_x2_15_sig
* NET 598 = aux177
* NET 600 = na3_x1_8_sig
* NET 602 = a4_x2_sig
* NET 612 = aux202
* NET 618 = aux172
* NET 620 = not_aux224
* NET 621 = na4_x1_3_sig
* NET 623 = not_aux172
* NET 628 = oa22_x2_13_sig
* NET 634 = noa22_x1_7_sig
* NET 638 = o2_x2_8_sig
* NET 642 = na2_x1_10_sig
* NET 649 = aux88
* NET 650 = aux156
* NET 651 = nao22_x1_29_sig
* NET 656 = noa22_x1_9_sig
* NET 659 = na2_x1_24_sig
* NET 663 = not_aux203
* NET 664 = xr2_x1_2_sig
* NET 667 = aux26
* NET 668 = ao2o22_x2_2_sig
* NET 674 = o2_x2_19_sig
* NET 677 = oa22_x2_20_sig
* NET 681 = not_aux200
* NET 683 = not_aux199
* NET 684 = o2_x2_11_sig
* NET 686 = na2_x1_21_sig
* NET 689 = noa22_x1_8_sig
* NET 690 = nao22_x1_26_sig
* NET 691 = na3_x1_10_sig
* NET 692 = oa2a22_x2_3_sig
* NET 693 = na4_x1_2_sig
* NET 697 = a2_x2_19_sig
* NET 698 = mbk_buf_aux98
* NET 701 = o2_x2_10_sig
* NET 702 = na3_x1_9_sig
* NET 705 = na2_x1_20_sig
* NET 708 = o2_x2_7_sig
* NET 709 = na3_x1_3_sig
* NET 710 = o3_x2_5_sig
* NET 715 = aux102
* NET 716 = not_aux102
* NET 717 = a4_x2_2_sig
* NET 719 = na2_x1_23_sig
* NET 720 = not_aux95
* NET 750 = not_aux26
* NET 751 = a2_x2_30_sig
* NET 752 = nao22_x1_41_sig
* NET 754 = inv_x2_37_sig
* NET 755 = na2_x1_6_sig
* NET 756 = not_aux48
* NET 759 = no2_x1_16_sig
* NET 761 = na2_x1_32_sig
* NET 766 = not_aux47
* NET 770 = a3_x2_6_sig
* NET 771 = aux221
* NET 773 = aux90
* NET 780 = aux179
* NET 782 = not_aux226
* NET 785 = oa2a2a2a24_x2_sig
* NET 787 = nao22_x1_27_sig
* NET 788 = nao22_x1_28_sig
* NET 794 = on12_x1_2_sig
* NET 799 = nao22_x1_25_sig
* NET 802 = not_aux201
* NET 805 = nao2o22_x1_2_sig
* NET 806 = a3_x2_5_sig
* NET 807 = a3_x2_4_sig
* NET 814 = na3_x1_4_sig
* NET 818 = na2_x1_11_sig
* NET 820 = not_aux193
* NET 824 = o2_x2_2_sig
* NET 830 = o2_x2_3_sig
* NET 834 = na2_x1_15_sig
* NET 835 = not_aux157
* NET 843 = not_aux13
* NET 846 = na3_x1_6_sig
* NET 847 = nao22_x1_21_sig
* NET 848 = oa22_x2_11_sig
* NET 849 = o2_x2_9_sig
* NET 850 = na3_x1_5_sig
* NET 854 = na3_x1_12_sig
* NET 856 = not_aux156
* NET 858 = na2_x1_18_sig
* NET 859 = not_aux99
* NET 862 = na2_x1_12_sig
* NET 870 = o3_x2_4_sig
* NET 871 = not_aux25
* NET 874 = an12_x1_10_sig
* NET 879 = nao22_x1_43_sig
* NET 880 = no2_x1_21_sig
* NET 885 = no2_x1_11_sig
* NET 889 = aux91
* NET 893 = oa2a22_x2_4_sig
* NET 897 = o2_x2_12_sig
* NET 901 = no3_x1_sig
* NET 906 = not_aux88
* NET 911 = not_aux71
* NET 914 = mx2_x2_5_sig
* NET 918 = nao22_x1_19_sig
* NET 926 = aux71
* NET 935 = nxr2_x1_2_sig
* NET 939 = not_aux0
* NET 940 = aux0
* NET 947 = aux182
* NET 951 = aux84
* NET 956 = xr2_x1_sig
* NET 961 = inv_x2_20_sig
* NET 962 = a2_x2_14_sig
* NET 970 = a3_x2_3_sig
* NET 971 = a2_x2_22_sig
* NET 974 = na3_x1_11_sig
* NET 975 = oa2a22_x2_2_sig
* NET 979 = na4_x1_sig
* NET 984 = not_aux91
* NET 987 = a2_x2_15_sig
* NET 989 = not_aux72
* NET 993 = not_aux173
* NET 996 = o2_x2_13_sig
* NET 997 = not_aux34
* NET 1004 = aux135
* NET 1005 = not_aux136
* NET 1006 = aux89
* NET 1009 = oa2a22_x2_sig
* NET 1010 = mx3_x2_18_sig
* NET 1018 = not_aux98
* NET 1068 = oa22_x2_2_sig
* NET 1069 = xr2_x1_5_sig
* NET 1078 = aux13
* NET 1081 = not_aux14
* NET 1082 = nao22_x1_6_sig
* NET 1094 = inv_x2_15_sig
* NET 1096 = not_aux86
* NET 1099 = aux49
* NET 1107 = on12_x1_sig
* NET 1113 = na2_x1_22_sig
* NET 1118 = o2_x2_6_sig
* NET 1119 = not_aux74
* NET 1120 = z[6]
* NET 1128 = mx3_x2_21_sig
* NET 1138 = aux174
* NET 1142 = not_aux100
* NET 1143 = a2_x2_10_sig
* NET 1145 = no2_x1_9_sig
* NET 1150 = na2_x1_8_sig
* NET 1152 = a3_x2_2_sig
* NET 1153 = ao22_x2_24_sig
* NET 1162 = nao22_x1_15_sig
* NET 1164 = not_aux31
* NET 1168 = not_aux170
* NET 1170 = oa22_x2_5_sig
* NET 1175 = no2_x1_10_sig
* NET 1177 = aux175
* NET 1179 = oa22_x2_6_sig
* NET 1183 = aux131
* NET 1184 = a2_x2_2_sig
* NET 1187 = inv_x2_26_sig
* NET 1189 = not_aux92
* NET 1190 = aux128
* NET 1194 = z[3]
* NET 1197 = mx3_x2_sig
* NET 1198 = mx3_x2_2_sig
* NET 1204 = aux219
* NET 1205 = inv_x2_10_sig
* NET 1209 = na2_x1_4_sig
* NET 1211 = not_aux28
* NET 1213 = na2_x1_3_sig
* NET 1214 = noa22_x1_4_sig
* NET 1221 = a2_x2_9_sig
* NET 1222 = ao22_x2_20_sig
* NET 1225 = no2_x1_6_sig
* NET 1226 = inv_x2_16_sig
* NET 1228 = na2_x1_7_sig
* NET 1233 = mx3_x2_8_sig
* NET 1235 = mx2_x2_3_sig
* NET 1236 = oa2ao222_x2_3_sig
* NET 1243 = z[5]
* NET 1246 = mx3_x2_7_sig
* NET 1252 = mx3_x2_16_sig
* NET 1254 = mx3_x2_17_sig
* NET 1261 = mx3_x2_14_sig
* NET 1263 = oa3ao322_x2_sig
* NET 1270 = nao22_x1_14_sig
* NET 1273 = aux93
* NET 1275 = ao22_x2_sig
* NET 1276 = not_aux137
* NET 1279 = na2_x1_2_sig
* NET 1280 = aux187
* NET 1281 = no2_x1_sig
* NET 1282 = not_aux220
* NET 1284 = nao2o22_x1_sig
* NET 1287 = inv_x2_19_sig
* NET 1288 = nao22_x1_10_sig
* NET 1290 = not_aux168
* NET 1291 = inv_x2_17_sig
* NET 1293 = not_aux101
* NET 1294 = na2_x1_sig
* NET 1339 = mx3_x2_3_sig
* NET 1346 = aux27
* NET 1349 = oa22_x2_3_sig
* NET 1350 = oa2ao222_x2_2_sig
* NET 1351 = inv_x2_6_sig
* NET 1355 = inv_x2_9_sig
* NET 1358 = oa22_x2_4_sig
* NET 1359 = aux18
* NET 1360 = inv_x2_7_sig
* NET 1363 = a2_x2_4_sig
* NET 1365 = aux16
* NET 1373 = not_aux22
* NET 1378 = mx3_x2_9_sig
* NET 1384 = nao22_x1_8_sig
* NET 1391 = not_aux144
* NET 1393 = nao22_x1_18_sig
* NET 1394 = mx3_x2_11_sig
* NET 1395 = oa22_x2_7_sig
* NET 1398 = nao22_x1_11_sig
* NET 1401 = na2_x1_9_sig
* NET 1406 = oa22_x2_10_sig
* NET 1407 = inv_x2_25_sig
* NET 1417 = na2_x1_17_sig
* NET 1419 = not_aux87
* NET 1420 = mx3_x2_10_sig
* NET 1424 = oa2ao222_x2_4_sig
* NET 1428 = not_aux134
* NET 1429 = inv_x2_18_sig
* NET 1431 = not_aux160
* NET 1434 = aux150
* NET 1435 = nmx2_x1_sig
* NET 1439 = aux126
* NET 1440 = mx2_x2_4_sig
* NET 1441 = na2_x1_14_sig
* NET 1446 = z[4]
* NET 1453 = ao22_x2_9_sig
* NET 1456 = ao22_x2_8_sig
* NET 1457 = y[3]
* NET 1460 = ao22_x2_19_sig
* NET 1463 = ao22_x2_21_sig
* NET 1464 = not_aux2
* NET 1469 = noa22_x1_5_sig
* NET 1470 = not_aux15
* NET 1473 = aux145
* NET 1474 = inv_x2_23_sig
* NET 1477 = a2_x2_13_sig
* NET 1479 = oa22_x2_9_sig
* NET 1487 = mx3_x2_12_sig
* NET 1488 = mx3_x2_13_sig
* NET 1492 = oa2ao222_x2_5_sig
* NET 1499 = nao22_x1_12_sig
* NET 1504 = nao22_x1_20_sig
* NET 1505 = mx3_x2_19_sig
* NET 1508 = mx3_x2_20_sig
* NET 1515 = na2_x1_16_sig
* NET 1517 = nao22_x1_31_sig
* NET 1522 = aux147
* NET 1524 = an12_x1_6_sig
* NET 1527 = not_aux164
* NET 1529 = o2_x2_sig
* NET 1532 = o2_x2_14_sig
* NET 1533 = not_aux126
* NET 1537 = inv_x2_sig
* NET 1538 = z[2]
* NET 1539 = nao22_x1_3_sig
* NET 1540 = nao22_x1_2_sig
* NET 1541 = y[4]
* NET 1542 = ao22_x2_7_sig
* NET 1544 = not_y[4]
* NET 1546 = ao22_x2_18_sig
* NET 1553 = not_aux17
* NET 1567 = not_aux161
* NET 1569 = inv_x2_29_sig
* NET 1570 = not_aux167
* NET 1577 = not_aux206
* NET 1579 = inv_x2_27_sig
* NET 1581 = not_aux179
* NET 1596 = no2_x1_2_sig
* NET 1599 = ao22_x2_15_sig
* NET 1600 = ao22_x2_13_sig
* NET 1603 = ao22_x2_14_sig
* NET 1607 = no2_x1_3_sig
* NET 1608 = inv_x2_8_sig
* NET 1609 = not_aux218
* NET 1610 = not_aux20
* NET 1616 = inv_x2_13_sig
* NET 1620 = mx3_x2_6_sig
* NET 1624 = mx2_x2_sig
* NET 1628 = ao22_x2_16_sig
* NET 1629 = not_aux76
* NET 1632 = not_aux40
* NET 1634 = noa22_x1_3_sig
* NET 1637 = oa2ao222_x2_7_sig
* NET 1638 = inv_x2_24_sig
* NET 1642 = a2_x2_17_sig
* NET 1645 = noa22_x1_6_sig
* NET 1648 = ao22_x2_25_sig
* NET 1651 = oa2ao222_x2_9_sig
* NET 1653 = not_aux143
* NET 1654 = not_aux176
* NET 1656 = aux186
* NET 1657 = nao22_x1_13_sig
* NET 1658 = not_aux39
* NET 1661 = nao22_x1_17_sig
* NET 1662 = mx3_x2_15_sig
* NET 1665 = nao22_x1_16_sig
* NET 1673 = not_aux184
* NET 1674 = no2_x1_12_sig
* NET 1676 = nao22_x1_30_sig
* NET 1677 = oa2ao222_x2_8_sig
* NET 1678 = inv_x2_28_sig
* NET 1682 = not_aux190
* NET 1683 = na2_x1_13_sig
* NET 1684 = aux192
* NET 1685 = a2_x2_18_sig
* NET 1689 = an12_x1_5_sig
* NET 1714 = aux118
* NET 1721 = oa2ao222_x2_6_sig
* NET 1735 = z[1]
* NET 1739 = ao22_x2_2_sig
* NET 1742 = ao22_x2_5_sig
* NET 1745 = a3_x2_sig
* NET 1747 = aux30
* NET 1749 = o3_x2_3_sig
* NET 1753 = not_y[0]
* NET 1754 = ao22_x2_23_sig
* NET 1755 = o3_x2_2_sig
* NET 1757 = not_y[3]
* NET 1759 = mx3_x2_5_sig
* NET 1762 = mx3_x2_4_sig
* NET 1763 = nao22_x1_5_sig
* NET 1764 = not_y[2]
* NET 1769 = nmx3_x1_sig
* NET 1772 = inv_x2_12_sig
* NET 1776 = inv_x2_11_sig
* NET 1783 = o3_x2_sig
* NET 1784 = nao22_x1_4_sig
* NET 1789 = not_aux83
* NET 1791 = inv_x2_22_sig
* NET 1792 = not_aux9
* NET 1793 = oa22_x2_8_sig
* NET 1795 = not_aux68
* NET 1796 = not_aux70
* NET 1799 = na3_x1_2_sig
* NET 1802 = a2_x2_16_sig
* NET 1807 = not_aux104
* NET 1809 = not_aux146
* NET 1812 = a2_x2_20_sig
* NET 1816 = a3_x2_7_sig
* NET 1817 = nao22_x1_22_sig
* NET 1820 = na2_x1_19_sig
* NET 1821 = on12_x1_3_sig
* NET 1822 = na3_x1_7_sig
* NET 1827 = not_aux90
* NET 1831 = not_aux191
* NET 1839 = ao22_x2_3_sig
* NET 1842 = not_aux56
* NET 1843 = noa22_x1_sig
* NET 1848 = ao22_x2_11_sig
* NET 1849 = y[2]
* NET 1852 = not_aux55
* NET 1853 = noa22_x1_2_sig
* NET 1855 = na3_x1_sig
* NET 1858 = ao22_x2_22_sig
* NET 1860 = no2_x1_7_sig
* NET 1864 = not_aux46
* NET 1866 = no2_x1_8_sig
* NET 1867 = mx2_x2_2_sig
* NET 1872 = inv_x2_14_sig
* NET 1873 = not_aux78
* NET 1877 = not_aux165
* NET 1878 = aux94
* NET 1880 = inv_x2_30_sig
* NET 1881 = nao22_x1_23_sig
* NET 1883 = inv_x2_21_sig
* NET 1884 = not_y[1]
* NET 1885 = not_aux117
* NET 1886 = oa22_x2_sig
* NET 1891 = nao22_x1_7_sig
* NET 1893 = not_aux105
* NET 1895 = a2_x2_12_sig
* NET 1896 = nao22_x1_9_sig
* NET 1898 = not_x[3]
* NET 1899 = not_x[4]
* NET 1900 = not_aux103
* NET 1901 = aux183
* NET 1902 = na2_x1_25_sig
* NET 1903 = noa22_x1_10_sig
* NET 1907 = aux103
* NET 1933 = z[0]
* NET 1935 = aux50
* NET 1940 = an12_x1_2_sig
* NET 1941 = ao22_x2_6_sig
* NET 1947 = a2_x2_6_sig
* NET 1948 = a2_x2_8_sig
* NET 1949 = ao22_x2_12_sig
* NET 1954 = an12_x1_4_sig
* NET 1956 = aux215
* NET 1962 = aux20
* NET 1966 = aux53
* NET 1972 = ao22_x2_17_sig
* NET 1973 = no2_x1_5_sig
* NET 1976 = no2_x1_4_sig
* NET 1977 = not_aux38
* NET 1981 = not_aux12
* NET 1984 = an12_x1_7_sig
* NET 1988 = aux81
* NET 1994 = not_aux77
* NET 1995 = not_aux79
* NET 2001 = nxr2_x1_sig
* NET 2010 = aux10
* NET 2011 = a2_x2_11_sig
* NET 2014 = not_aux125
* NET 2015 = a2_x2_sig
* NET 2019 = aux62
* NET 2022 = not_aux63
* NET 2028 = not_aux115
* NET 2029 = not_aux110
* NET 2030 = o2_x2_5_sig
* NET 2036 = not_aux121
* NET 2039 = not_aux124
* NET 2041 = not_aux109
* NET 2043 = o2_x2_4_sig
* NET 2044 = vss
* NET 2045 = ao22_x2_4_sig
* NET 2048 = an12_x1_sig
* NET 2049 = a2_x2_5_sig
* NET 2055 = y[0]
* NET 2056 = ao22_x2_10_sig
* NET 2058 = y[1]
* NET 2059 = an12_x1_3_sig
* NET 2062 = a2_x2_7_sig
* NET 2063 = aux60
* NET 2066 = aux19
* NET 2069 = not_aux45
* NET 2070 = aux59
* NET 2074 = not_aux44
* NET 2075 = not_aux43
* NET 2079 = not_aux37
* NET 2083 = not_aux35
* NET 2087 = aux34
* NET 2088 = mbk_buf_aux34
* NET 2092 = not_aux33
* NET 2093 = not_aux64
* NET 2095 = aux66
* NET 2096 = not_aux66
* NET 2098 = not_aux32
* NET 2101 = mbk_buf_aux31
* NET 2102 = aux31
* NET 2104 = not_aux106
* NET 2105 = not_x[1]
* NET 2108 = x[1]
* NET 2109 = not_aux171
* NET 2111 = not_aux67
* NET 2113 = x[0]
* NET 2115 = not_x[0]
* NET 2119 = not_aux112
* NET 2120 = aux111
* NET 2121 = not_aux111
* NET 2122 = x[3]
* NET 2123 = x[4]
* NET 2125 = x[2]
* NET 2126 = not_x[2]
* NET 2127 = vdd
Mtr_04128 2120 2124 2127 2127 tp L=1U W=20U AS=40P AD=40P PS=44U PD=44U 
Mtr_04127 2127 2122 2124 2127 tp L=1U W=10U AS=20P AD=20P PS=24U PD=24U 
Mtr_04126 2124 2123 2127 2127 tp L=1U W=10U AS=20P AD=20P PS=24U PD=24U 
Mtr_04125 2126 2125 2127 2127 tp L=1U W=20U AS=40P AD=40P PS=44U PD=44U 
Mtr_04124 2127 2125 2126 2127 tp L=1U W=20U AS=40P AD=40P PS=44U PD=44U 
Mtr_04123 2127 2125 2126 2127 tp L=1U W=20U AS=40P AD=40P PS=44U PD=44U 
Mtr_04122 2126 2125 2127 2127 tp L=1U W=20U AS=40P AD=40P PS=44U PD=44U 
Mtr_04121 2127 2116 2118 2127 tp L=1U W=20U AS=40P AD=40P PS=44U PD=44U 
Mtr_04120 2118 2117 2119 2127 tp L=1U W=20U AS=40P AD=40P PS=44U PD=44U 
Mtr_04119 2118 2120 2127 2127 tp L=1U W=20U AS=40P AD=40P PS=44U PD=44U 
Mtr_04118 2119 2125 2118 2127 tp L=1U W=20U AS=40P AD=40P PS=44U PD=44U 
Mtr_04117 2127 2120 2117 2127 tp L=1U W=10U AS=20P AD=20P PS=24U PD=24U 
Mtr_04116 2116 2125 2127 2127 tp L=1U W=10U AS=20P AD=20P PS=24U PD=24U 
Mtr_04115 2121 2120 2127 2127 tp L=1U W=15U AS=30P AD=30P PS=34U PD=34U 
Mtr_04114 2101 2103 2127 2127 tp L=1U W=20U AS=40P AD=40P PS=44U PD=44U 
Mtr_04113 2127 2102 2103 2127 tp L=1U W=6U AS=12P AD=12P PS=16U PD=16U 
Mtr_04112 2106 2105 2107 2127 tp L=1U W=15U AS=30P AD=30P PS=34U PD=34U 
Mtr_04111 2127 2111 2106 2127 tp L=1U W=15U AS=30P AD=30P PS=34U PD=34U 
Mtr_04110 2104 2107 2127 2127 tp L=1U W=20U AS=40P AD=40P PS=44U PD=44U 
Mtr_04109 2109 2108 2127 2127 tp L=1U W=10U AS=20P AD=20P PS=24U PD=24U 
Mtr_04108 2127 2111 2109 2127 tp L=1U W=10U AS=20P AD=20P PS=24U PD=24U 
Mtr_04107 2127 2110 2112 2127 tp L=1U W=20U AS=40P AD=40P PS=44U PD=44U 
Mtr_04106 2112 2114 2111 2127 tp L=1U W=20U AS=40P AD=40P PS=44U PD=44U 
Mtr_04105 2112 2125 2127 2127 tp L=1U W=20U AS=40P AD=40P PS=44U PD=44U 
Mtr_04104 2111 2123 2112 2127 tp L=1U W=20U AS=40P AD=40P PS=44U PD=44U 
Mtr_04103 2127 2125 2114 2127 tp L=1U W=10U AS=20P AD=20P PS=24U PD=24U 
Mtr_04102 2110 2123 2127 2127 tp L=1U W=10U AS=20P AD=20P PS=24U PD=24U 
Mtr_04101 2127 2113 2094 2127 tp L=1U W=20U AS=40P AD=40P PS=44U PD=44U 
Mtr_04100 2095 2093 2094 2127 tp L=1U W=20U AS=40P AD=40P PS=44U PD=44U 
Mtr_04099 2094 2092 2095 2127 tp L=1U W=20U AS=40P AD=40P PS=44U PD=44U 
Mtr_04098 2097 2123 2127 2127 tp L=1U W=10U AS=20P AD=20P PS=24U PD=24U 
Mtr_04097 2127 2102 2100 2127 tp L=1U W=10U AS=20P AD=20P PS=24U PD=24U 
Mtr_04096 2098 2097 2099 2127 tp L=1U W=20U AS=40P AD=40P PS=44U PD=44U 
Mtr_04095 2099 2102 2127 2127 tp L=1U W=20U AS=40P AD=40P PS=44U PD=44U 
Mtr_04094 2099 2100 2098 2127 tp L=1U W=20U AS=40P AD=40P PS=44U PD=44U 
Mtr_04093 2127 2123 2099 2127 tp L=1U W=20U AS=40P AD=40P PS=44U PD=44U 
Mtr_04092 2096 2095 2127 2127 tp L=1U W=15U AS=30P AD=30P PS=34U PD=34U 
Mtr_04091 2115 2113 2127 2127 tp L=1U W=15U AS=30P AD=30P PS=34U PD=34U 
Mtr_04090 2102 2122 2127 2127 tp L=1U W=10U AS=20P AD=20P PS=24U PD=24U 
Mtr_04089 2127 2126 2102 2127 tp L=1U W=10U AS=20P AD=20P PS=24U PD=24U 
Mtr_04088 2086 2126 2087 2127 tp L=1U W=20U AS=40P AD=40P PS=44U PD=44U 
Mtr_04087 2127 2122 2086 2127 tp L=1U W=20U AS=40P AD=40P PS=44U PD=44U 
Mtr_04086 2088 2089 2127 2127 tp L=1U W=20U AS=40P AD=40P PS=44U PD=44U 
Mtr_04085 2127 2087 2089 2127 tp L=1U W=6U AS=12P AD=12P PS=16U PD=16U 
Mtr_04084 2077 2108 2127 2127 tp L=1U W=10U AS=20P AD=20P PS=24U PD=24U 
Mtr_04083 2076 2098 2078 2127 tp L=1U W=10U AS=20P AD=20P PS=24U PD=24U 
Mtr_04082 2127 2105 2076 2127 tp L=1U W=10U AS=20P AD=20P PS=24U PD=24U 
Mtr_04081 2078 2083 2077 2127 tp L=1U W=10U AS=20P AD=20P PS=24U PD=24U 
Mtr_04080 2075 2078 2127 2127 tp L=1U W=20U AS=40P AD=40P PS=44U PD=44U 
Mtr_04079 2127 2080 2079 2127 tp L=1U W=20U AS=40P AD=40P PS=44U PD=44U 
Mtr_04078 2080 2092 2127 2127 tp L=1U W=10U AS=20P AD=20P PS=24U PD=24U 
Mtr_04077 2127 2105 2081 2127 tp L=1U W=10U AS=20P AD=20P PS=24U PD=24U 
Mtr_04076 2081 2083 2080 2127 tp L=1U W=10U AS=20P AD=20P PS=24U PD=24U 
Mtr_04075 2127 2082 2085 2127 tp L=1U W=20U AS=40P AD=40P PS=44U PD=44U 
Mtr_04074 2085 2084 2083 2127 tp L=1U W=20U AS=40P AD=40P PS=44U PD=44U 
Mtr_04073 2085 2087 2127 2127 tp L=1U W=20U AS=40P AD=40P PS=44U PD=44U 
Mtr_04072 2083 2123 2085 2127 tp L=1U W=20U AS=40P AD=40P PS=44U PD=44U 
Mtr_04071 2127 2087 2084 2127 tp L=1U W=10U AS=20P AD=20P PS=24U PD=24U 
Mtr_04070 2082 2123 2127 2127 tp L=1U W=10U AS=20P AD=20P PS=24U PD=24U 
Mtr_04069 2091 2098 2090 2127 tp L=1U W=15U AS=30P AD=30P PS=34U PD=34U 
Mtr_04068 2127 2108 2091 2127 tp L=1U W=15U AS=30P AD=30P PS=34U PD=34U 
Mtr_04067 2092 2090 2127 2127 tp L=1U W=20U AS=40P AD=40P PS=44U PD=44U 
Mtr_04066 2127 2065 2068 2127 tp L=1U W=20U AS=40P AD=40P PS=44U PD=44U 
Mtr_04065 2068 2067 2069 2127 tp L=1U W=20U AS=40P AD=40P PS=44U PD=44U 
Mtr_04064 2068 2066 2127 2127 tp L=1U W=20U AS=40P AD=40P PS=44U PD=44U 
Mtr_04063 2069 2123 2068 2127 tp L=1U W=20U AS=40P AD=40P PS=44U PD=44U 
Mtr_04062 2127 2066 2067 2127 tp L=1U W=10U AS=20P AD=20P PS=24U PD=24U 
Mtr_04061 2065 2123 2127 2127 tp L=1U W=10U AS=20P AD=20P PS=24U PD=24U 
Mtr_04060 2063 2064 2127 2127 tp L=1U W=20U AS=40P AD=40P PS=44U PD=44U 
Mtr_04059 2127 2069 2064 2127 tp L=1U W=10U AS=20P AD=20P PS=24U PD=24U 
Mtr_04058 2064 2113 2127 2127 tp L=1U W=10U AS=20P AD=20P PS=24U PD=24U 
Mtr_04057 2070 2071 2127 2127 tp L=1U W=20U AS=40P AD=40P PS=44U PD=44U 
Mtr_04056 2127 2075 2071 2127 tp L=1U W=10U AS=20P AD=20P PS=24U PD=24U 
Mtr_04055 2071 2113 2127 2127 tp L=1U W=10U AS=20P AD=20P PS=24U PD=24U 
Mtr_04054 2073 2115 2072 2127 tp L=1U W=15U AS=30P AD=30P PS=34U PD=34U 
Mtr_04053 2127 2075 2073 2127 tp L=1U W=15U AS=30P AD=30P PS=34U PD=34U 
Mtr_04052 2074 2072 2127 2127 tp L=1U W=20U AS=40P AD=40P PS=44U PD=44U 
Mtr_04051 2049 2054 2127 2127 tp L=1U W=20U AS=40P AD=40P PS=44U PD=44U 
Mtr_04050 2127 2063 2054 2127 tp L=1U W=10U AS=20P AD=20P PS=24U PD=24U 
Mtr_04049 2054 2058 2127 2127 tp L=1U W=10U AS=20P AD=20P PS=24U PD=24U 
Mtr_04048 2046 2070 2127 2127 tp L=1U W=10U AS=20P AD=20P PS=24U PD=24U 
Mtr_04047 2127 2046 2047 2127 tp L=1U W=20U AS=40P AD=40P PS=44U PD=44U 
Mtr_04046 2047 2058 2048 2127 tp L=1U W=20U AS=40P AD=40P PS=44U PD=44U 
Mtr_04045 2052 2063 2127 2127 tp L=1U W=10U AS=20P AD=20P PS=24U PD=24U 
Mtr_04044 2127 2052 2053 2127 tp L=1U W=20U AS=40P AD=40P PS=44U PD=44U 
Mtr_04043 2053 2058 2059 2127 tp L=1U W=20U AS=40P AD=40P PS=44U PD=44U 
Mtr_04042 2127 2057 2056 2127 tp L=1U W=20U AS=40P AD=40P PS=44U PD=44U 
Mtr_04041 2057 2055 2127 2127 tp L=1U W=10U AS=20P AD=20P PS=24U PD=24U 
Mtr_04040 2127 2059 2061 2127 tp L=1U W=10U AS=20P AD=20P PS=24U PD=24U 
Mtr_04039 2061 2062 2057 2127 tp L=1U W=10U AS=20P AD=20P PS=24U PD=24U 
Mtr_04038 2062 2060 2127 2127 tp L=1U W=20U AS=40P AD=40P PS=44U PD=44U 
Mtr_04037 2127 2070 2060 2127 tp L=1U W=10U AS=20P AD=20P PS=24U PD=24U 
Mtr_04036 2060 2058 2127 2127 tp L=1U W=10U AS=20P AD=20P PS=24U PD=24U 
Mtr_04035 2127 2050 2045 2127 tp L=1U W=20U AS=40P AD=40P PS=44U PD=44U 
Mtr_04034 2050 2055 2127 2127 tp L=1U W=10U AS=20P AD=20P PS=24U PD=24U 
Mtr_04033 2127 2048 2051 2127 tp L=1U W=10U AS=20P AD=20P PS=24U PD=24U 
Mtr_04032 2051 2049 2050 2127 tp L=1U W=10U AS=20P AD=20P PS=24U PD=24U 
Mtr_04031 1932 2105 2042 2127 tp L=1U W=15U AS=30P AD=30P PS=34U PD=34U 
Mtr_04030 2127 2041 1932 2127 tp L=1U W=15U AS=30P AD=30P PS=34U PD=34U 
Mtr_04029 2043 2042 2127 2127 tp L=1U W=20U AS=40P AD=40P PS=44U PD=44U 
Mtr_04028 1930 2119 2035 2127 tp L=1U W=15U AS=30P AD=30P PS=34U PD=34U 
Mtr_04027 2127 2108 1930 2127 tp L=1U W=15U AS=30P AD=30P PS=34U PD=34U 
Mtr_04026 2036 2035 2127 2127 tp L=1U W=20U AS=40P AD=40P PS=44U PD=44U 
Mtr_04025 2127 2037 2039 2127 tp L=1U W=20U AS=40P AD=40P PS=44U PD=44U 
Mtr_04024 1931 2115 2127 2127 tp L=1U W=10U AS=20P AD=20P PS=24U PD=24U 
Mtr_04023 1931 2043 2037 2127 tp L=1U W=10U AS=20P AD=20P PS=24U PD=24U 
Mtr_04022 2037 2036 1931 2127 tp L=1U W=10U AS=20P AD=20P PS=24U PD=24U 
Mtr_04021 1929 2105 2033 2127 tp L=1U W=15U AS=30P AD=30P PS=34U PD=34U 
Mtr_04020 2127 2119 1929 2127 tp L=1U W=15U AS=30P AD=30P PS=34U PD=34U 
Mtr_04019 2030 2033 2127 2127 tp L=1U W=20U AS=40P AD=40P PS=44U PD=44U 
Mtr_04018 2127 2026 2028 2127 tp L=1U W=20U AS=40P AD=40P PS=44U PD=44U 
Mtr_04017 1928 2115 2127 2127 tp L=1U W=10U AS=20P AD=20P PS=24U PD=24U 
Mtr_04016 1928 2030 2026 2127 tp L=1U W=10U AS=20P AD=20P PS=24U PD=24U 
Mtr_04015 2026 2029 1928 2127 tp L=1U W=10U AS=20P AD=20P PS=24U PD=24U 
Mtr_04014 2127 2017 2014 2127 tp L=1U W=20U AS=40P AD=40P PS=44U PD=44U 
Mtr_04013 2017 2039 2127 2127 tp L=1U W=10U AS=20P AD=20P PS=24U PD=24U 
Mtr_04012 2127 2015 1926 2127 tp L=1U W=10U AS=20P AD=20P PS=24U PD=24U 
Mtr_04011 1926 2113 2017 2127 tp L=1U W=10U AS=20P AD=20P PS=24U PD=24U 
Mtr_04010 2011 2013 2127 2127 tp L=1U W=20U AS=40P AD=40P PS=44U PD=44U 
Mtr_04009 2127 2010 2013 2127 tp L=1U W=10U AS=20P AD=20P PS=24U PD=24U 
Mtr_04008 2013 2109 2127 2127 tp L=1U W=10U AS=20P AD=20P PS=24U PD=24U 
Mtr_04007 2127 2020 1927 2127 tp L=1U W=20U AS=40P AD=40P PS=44U PD=44U 
Mtr_04006 1927 2027 2022 2127 tp L=1U W=20U AS=40P AD=40P PS=44U PD=44U 
Mtr_04005 1927 2019 2127 2127 tp L=1U W=20U AS=40P AD=40P PS=44U PD=44U 
Mtr_04004 2022 2123 1927 2127 tp L=1U W=20U AS=40P AD=40P PS=44U PD=44U 
Mtr_04003 2127 2019 2027 2127 tp L=1U W=10U AS=20P AD=20P PS=24U PD=24U 
Mtr_04002 2020 2123 2127 2127 tp L=1U W=10U AS=20P AD=20P PS=24U PD=24U 
Mtr_04001 2015 2008 2127 2127 tp L=1U W=20U AS=40P AD=40P PS=44U PD=44U 
Mtr_04000 2127 2010 2008 2127 tp L=1U W=10U AS=20P AD=20P PS=24U PD=24U 
Mtr_03999 2008 2104 2127 2127 tp L=1U W=10U AS=20P AD=20P PS=24U PD=24U 
Mtr_03998 1923 2105 1997 2127 tp L=1U W=15U AS=30P AD=30P PS=34U PD=34U 
Mtr_03997 2127 2022 1923 2127 tp L=1U W=15U AS=30P AD=30P PS=34U PD=34U 
Mtr_03996 2093 1997 2127 2127 tp L=1U W=20U AS=40P AD=40P PS=44U PD=44U 
Mtr_03995 2127 2113 1921 2127 tp L=1U W=20U AS=40P AD=40P PS=44U PD=44U 
Mtr_03994 1988 1995 1921 2127 tp L=1U W=20U AS=40P AD=40P PS=44U PD=44U 
Mtr_03993 1921 2092 1988 2127 tp L=1U W=20U AS=40P AD=40P PS=44U PD=44U 
Mtr_03992 1995 2108 2127 2127 tp L=1U W=10U AS=20P AD=20P PS=24U PD=24U 
Mtr_03991 2127 2022 1995 2127 tp L=1U W=10U AS=20P AD=20P PS=24U PD=24U 
Mtr_03990 2127 2000 1924 2127 tp L=1U W=20U AS=40P AD=40P PS=44U PD=44U 
Mtr_03989 1924 2002 2001 2127 tp L=1U W=20U AS=40P AD=40P PS=44U PD=44U 
Mtr_03988 1924 2010 2127 2127 tp L=1U W=20U AS=40P AD=40P PS=44U PD=44U 
Mtr_03987 2001 2122 1924 2127 tp L=1U W=20U AS=40P AD=40P PS=44U PD=44U 
Mtr_03986 2127 2010 2002 2127 tp L=1U W=10U AS=20P AD=20P PS=24U PD=24U 
Mtr_03985 2000 2122 2127 2127 tp L=1U W=10U AS=20P AD=20P PS=24U PD=24U 
Mtr_03984 1925 2126 2006 2127 tp L=1U W=15U AS=30P AD=30P PS=34U PD=34U 
Mtr_03983 2127 2108 1925 2127 tp L=1U W=15U AS=30P AD=30P PS=34U PD=34U 
Mtr_03982 2010 2006 2127 2127 tp L=1U W=20U AS=40P AD=40P PS=44U PD=44U 
Mtr_03981 2127 1990 1922 2127 tp L=1U W=20U AS=40P AD=40P PS=44U PD=44U 
Mtr_03980 1922 1992 1994 2127 tp L=1U W=20U AS=40P AD=40P PS=44U PD=44U 
Mtr_03979 1922 2123 2127 2127 tp L=1U W=20U AS=40P AD=40P PS=44U PD=44U 
Mtr_03978 1994 2108 1922 2127 tp L=1U W=20U AS=40P AD=40P PS=44U PD=44U 
Mtr_03977 2127 2123 1992 2127 tp L=1U W=10U AS=20P AD=20P PS=24U PD=24U 
Mtr_03976 1990 2108 2127 2127 tp L=1U W=10U AS=20P AD=20P PS=24U PD=24U 
Mtr_03975 2127 1974 1972 2127 tp L=1U W=20U AS=40P AD=40P PS=44U PD=44U 
Mtr_03974 1974 2055 2127 2127 tp L=1U W=10U AS=20P AD=20P PS=24U PD=24U 
Mtr_03973 2127 1973 1917 2127 tp L=1U W=10U AS=20P AD=20P PS=24U PD=24U 
Mtr_03972 1917 1976 1974 2127 tp L=1U W=10U AS=20P AD=20P PS=24U PD=24U 
Mtr_03971 2127 2001 1981 2127 tp L=1U W=10U AS=20P AD=20P PS=24U PD=24U 
Mtr_03970 1981 1980 2127 2127 tp L=1U W=10U AS=20P AD=20P PS=24U PD=24U 
Mtr_03969 2127 2113 1980 2127 tp L=1U W=10U AS=20P AD=20P PS=24U PD=24U 
Mtr_03968 1919 2115 1978 2127 tp L=1U W=15U AS=30P AD=30P PS=34U PD=34U 
Mtr_03967 2127 2079 1919 2127 tp L=1U W=15U AS=30P AD=30P PS=34U PD=34U 
Mtr_03966 1977 1978 2127 2127 tp L=1U W=20U AS=40P AD=40P PS=44U PD=44U 
Mtr_03965 1985 2074 2127 2127 tp L=1U W=10U AS=20P AD=20P PS=24U PD=24U 
Mtr_03964 2127 1985 1920 2127 tp L=1U W=20U AS=40P AD=40P PS=44U PD=44U 
Mtr_03963 1920 1988 1984 2127 tp L=1U W=20U AS=40P AD=40P PS=44U PD=44U 
Mtr_03962 1918 2074 1976 2127 tp L=1U W=20U AS=40P AD=40P PS=44U PD=44U 
Mtr_03961 2127 2058 1918 2127 tp L=1U W=20U AS=40P AD=40P PS=44U PD=44U 
Mtr_03960 1947 1946 2127 2127 tp L=1U W=20U AS=40P AD=40P PS=44U PD=44U 
Mtr_03959 2127 1966 1946 2127 tp L=1U W=10U AS=20P AD=20P PS=24U PD=24U 
Mtr_03958 1946 2058 2127 2127 tp L=1U W=10U AS=20P AD=20P PS=24U PD=24U 
Mtr_03957 1963 2108 2127 2127 tp L=1U W=10U AS=20P AD=20P PS=24U PD=24U 
Mtr_03956 2127 2122 1967 2127 tp L=1U W=10U AS=20P AD=20P PS=24U PD=24U 
Mtr_03955 2066 1963 1916 2127 tp L=1U W=20U AS=40P AD=40P PS=44U PD=44U 
Mtr_03954 1916 2122 2127 2127 tp L=1U W=20U AS=40P AD=40P PS=44U PD=44U 
Mtr_03953 1916 1967 2066 2127 tp L=1U W=20U AS=40P AD=40P PS=44U PD=44U 
Mtr_03952 2127 2108 1916 2127 tp L=1U W=20U AS=40P AD=40P PS=44U PD=44U 
Mtr_03951 1956 1958 2127 2127 tp L=1U W=20U AS=40P AD=40P PS=44U PD=44U 
Mtr_03950 2127 2113 1958 2127 tp L=1U W=10U AS=20P AD=20P PS=24U PD=24U 
Mtr_03949 1958 2055 2127 2127 tp L=1U W=10U AS=20P AD=20P PS=24U PD=24U 
Mtr_03948 1966 1970 2127 2127 tp L=1U W=20U AS=40P AD=40P PS=44U PD=44U 
Mtr_03947 2127 2079 1970 2127 tp L=1U W=10U AS=20P AD=20P PS=24U PD=24U 
Mtr_03946 1970 2113 2127 2127 tp L=1U W=10U AS=20P AD=20P PS=24U PD=24U 
Mtr_03945 1955 1966 2127 2127 tp L=1U W=10U AS=20P AD=20P PS=24U PD=24U 
Mtr_03944 2127 1955 1914 2127 tp L=1U W=20U AS=40P AD=40P PS=44U PD=44U 
Mtr_03943 1914 2058 1954 2127 tp L=1U W=20U AS=40P AD=40P PS=44U PD=44U 
Mtr_03942 1960 2066 2127 2127 tp L=1U W=10U AS=20P AD=20P PS=24U PD=24U 
Mtr_03941 2127 1960 1915 2127 tp L=1U W=20U AS=40P AD=40P PS=44U PD=44U 
Mtr_03940 1915 2113 1962 2127 tp L=1U W=20U AS=40P AD=40P PS=44U PD=44U 
Mtr_03939 1938 1935 2127 2127 tp L=1U W=10U AS=20P AD=20P PS=24U PD=24U 
Mtr_03938 2127 1938 1911 2127 tp L=1U W=20U AS=40P AD=40P PS=44U PD=44U 
Mtr_03937 1911 2058 1940 2127 tp L=1U W=20U AS=40P AD=40P PS=44U PD=44U 
Mtr_03936 1933 1934 2127 2127 tp L=1U W=20U AS=40P AD=40P PS=44U PD=44U 
Mtr_03935 2127 1956 1934 2127 tp L=1U W=6U AS=12P AD=12P PS=16U PD=16U 
Mtr_03934 2127 1950 1949 2127 tp L=1U W=20U AS=40P AD=40P PS=44U PD=44U 