* Spice description of act5_cougar
* Spice driver version -1208783196
* Date ( dd/mm/yyyy hh:mm:ss ): 23/11/2020 at 13:04:07

* INTERF clk ctrl ctrl1 dh[0] dh[1] dh[2] dh[3] dm[0] dm[1] dm[2] dm[3] rst 
* INTERF uh[0] uh[1] uh[2] uh[3] um[0] um[1] um[2] um[3] vdd vss 


.subckt act5_cougar 1881 1111 187 364 309 188 463 1230 1148 1056 957 1845 831 761 647 465 1804 1653 1507 1394 1885 1803 
* NET 24 = not_maquina
* NET 26 = mbk_buf_not_maquina
* NET 30 = not_aux15
* NET 34 = mbk_buf_aux16
* NET 38 = a3_x2_8_sig
* NET 39 = no3_x1_8_sig
* NET 43 = cum_2_ins.sff_s
* NET 44 = cum_2_ins.y
* NET 45 = cum_2_ins.sff_m
* NET 48 = oa22_x2_4_sig
* NET 49 = cum_2_ins.u
* NET 50 = cum_2_ins.nckr
* NET 51 = cum_2_ins.ckr
* NET 53 = maquina
* NET 55 = maquina_ins.sff_s
* NET 57 = maquina_ins.y
* NET 59 = maquina_ins.sff_m
* NET 62 = maquina_ins.nckr
* NET 63 = maquina_ins.u
* NET 64 = maquina_ins.ckr
* NET 69 = cdm_0_ins.y
* NET 71 = cdm_0_ins.sff_m
* NET 73 = cdm_0_ins.sff_s
* NET 74 = cdm_0_ins.u
* NET 75 = cdm_0_ins.ckr
* NET 76 = cdm_0_ins.nckr
* NET 77 = no2_x1_6_sig
* NET 80 = mbk_buf_mbk_buf_maquina
* NET 83 = nxr2_x1_2_sig
* NET 85 = cum_1_ins.sff_s
* NET 86 = cum_1_ins.y
* NET 89 = cum_1_ins.sff_m
* NET 90 = cum_1_ins.nckr
* NET 91 = cum_1_ins.u
* NET 92 = cum_1_ins.ckr
* NET 93 = mbk_buf_maquina
* NET 96 = aux0
* NET 102 = nao2o22_x1_sig
* NET 104 = o3_x2_5_sig
* NET 112 = not_aux71
* NET 114 = noa22_x1_sig
* NET 117 = o3_x2_6_sig
* NET 118 = not_aux147
* NET 122 = not_aux58
* NET 125 = o2_x2_8_sig
* NET 130 = no2_x1_22_sig
* NET 131 = na2_x1_18_sig
* NET 134 = nao22_x1_6_sig
* NET 135 = oa2a22_x2_sig
* NET 139 = cum_3_ins.sff_s
* NET 140 = cum_3_ins.y
* NET 143 = cum_3_ins.sff_m
* NET 144 = oa22_x2_5_sig
* NET 145 = cum_3_ins.u
* NET 146 = cum_3_ins.ckr
* NET 147 = cum_3_ins.nckr
* NET 148 = na3_x1_13_sig
* NET 150 = na3_x1_12_sig
* NET 155 = na3_x1_14_sig
* NET 157 = na2_x1_11_sig
* NET 187 = ctrl1
* NET 188 = dh[2]
* NET 189 = cum[0]
* NET 192 = cum_0_ins.sff_s
* NET 193 = cum_0_ins.y
* NET 195 = cum_0_ins.sff_m
* NET 197 = cum_0_ins.u
* NET 198 = cum_0_ins.ckr
* NET 200 = na2_x1_16_sig
* NET 201 = cum_0_ins.nckr
* NET 202 = mbk_buf_aux0
* NET 203 = na3_x1_18_sig
* NET 204 = no2_x1_21_sig
* NET 208 = no3_x1_7_sig
* NET 211 = not_aux0
* NET 212 = an12_x1_2_sig
* NET 217 = cdm_3_ins.sff_s
* NET 218 = cdm_3_ins.y
* NET 219 = cdm_3_ins.u
* NET 221 = cdm_3_ins.sff_m
* NET 223 = aux16
* NET 224 = cdm_3_ins.nckr
* NET 225 = cdm_3_ins.ckr
* NET 226 = cum[1]
* NET 231 = na2_x1_10_sig
* NET 232 = na2_x1_15_sig
* NET 233 = nao22_x1_5_sig
* NET 234 = oa22_x2_3_sig
* NET 238 = not_aux70
* NET 241 = a4_x2_sig
* NET 242 = no2_x1_17_sig
* NET 244 = aux150
* NET 247 = oa22_x2_2_sig
* NET 248 = na2_x1_12_sig
* NET 250 = na3_x1_16_sig
* NET 251 = not_aux59
* NET 253 = no2_x1_19_sig
* NET 255 = on12_x1_4_sig
* NET 257 = cdm_1_ins.y
* NET 259 = cdm_1_ins.sff_m
* NET 260 = cdm_1_ins.sff_s
* NET 261 = na3_x1_15_sig
* NET 262 = cdm_1_ins.u
* NET 264 = cdm_1_ins.nckr
* NET 265 = cdm_1_ins.ckr
* NET 266 = no2_x1_18_sig
* NET 272 = stop_ins.u
* NET 273 = stop_ins.ckr
* NET 274 = stop_ins.nckr
* NET 276 = na2_x1_17_sig
* NET 278 = mbk_buf_not_aux0
* NET 279 = no2_x1_7_sig
* NET 286 = not_aux39
* NET 292 = not_aux17
* NET 302 = na2_x1_14_sig
* NET 306 = not_aux60
* NET 309 = dh[1]
* NET 310 = stop_ins.sff_s
* NET 313 = stop_ins.sff_m
* NET 315 = stop_ins.y
* NET 321 = ao22_x2_sig
* NET 325 = aux146
* NET 327 = a2_x2_2_sig
* NET 333 = not_aux61
* NET 336 = o3_x2_3_sig
* NET 345 = not_aux19
* NET 352 = aux64
* NET 354 = nao22_x1_4_sig
* NET 358 = no2_x1_20_sig
* NET 359 = na3_x1_17_sig
* NET 364 = dh[0]
* NET 367 = rtlalc_9_1_ins.sff_s
* NET 368 = rtlalc_9_1_ins.y
* NET 370 = rtlalc_9_1_ins.sff_m
* NET 371 = rtlalc_9_1_ins.u
* NET 373 = rtlalc_9_1_ins.ckr
* NET 374 = not_cum[0]
* NET 375 = rtlalc_9_1_ins.nckr
* NET 376 = not_cum[1]
* NET 378 = not_aux145
* NET 380 = inv_x2_2_sig
* NET 381 = not_aux1
* NET 383 = mbk_buf_not_aux1
* NET 386 = aux11
* NET 389 = not_aux42
* NET 390 = not_stop
* NET 391 = na4_x1_5_sig
* NET 392 = na2_x1_5_sig
* NET 393 = no2_x1_10_sig
* NET 397 = on12_x1_2_sig
* NET 399 = mbk_buf_not_aux15
* NET 400 = no2_x1_11_sig
* NET 402 = o3_x2_2_sig
* NET 407 = cdh[2]
* NET 409 = cdh_2_ins.sff_s
* NET 410 = cdh_2_ins.y
* NET 412 = cdh_2_ins.sff_m
* NET 414 = oa3ao322_x2_sig
* NET 415 = cdh_2_ins.nckr
* NET 416 = cdh_2_ins.u
* NET 417 = cdh_2_ins.ckr
* NET 418 = aux66
* NET 419 = not_cdm[2]
* NET 420 = inv_x2_4_sig
* NET 424 = o3_x2_4_sig
* NET 425 = a4_x2_4_sig
* NET 427 = cdm_2_ins.sff_s
* NET 428 = cdm_2_ins.y
* NET 430 = cdm_2_ins.sff_m
* NET 431 = na2_x1_13_sig
* NET 432 = cdm_2_ins.u
* NET 434 = cdm_2_ins.ckr
* NET 435 = cdm_2_ins.nckr
* NET 463 = dh[3]
* NET 465 = uh[3]
* NET 469 = rtlalc_9_2_ins.sff_s
* NET 470 = rtlalc_9_2_ins.y
* NET 471 = rtlalc_9_2_ins.sff_m
* NET 477 = rtlalc_9_2_ins.nckr
* NET 478 = rtlalc_9_2_ins.u
* NET 479 = rtlalc_9_2_ins.ckr
* NET 482 = cdh_1_ins.sff_s
* NET 484 = cdh_1_ins.y
* NET 485 = cdh_1_ins.sff_m
* NET 488 = cdh_1_ins.nckr
* NET 489 = cdh_1_ins.u
* NET 490 = cdh_1_ins.ckr
* NET 495 = cdh[1]
* NET 498 = o3_x2_sig
* NET 500 = nao22_x1_sig
* NET 501 = an12_x1_sig
* NET 508 = na4_x1_sig
* NET 511 = cum[2]
* NET 513 = no2_x1_4_sig
* NET 514 = no2_x1_3_sig
* NET 517 = na4_x1_2_sig
* NET 520 = a2_x2_sig
* NET 524 = na4_x1_4_sig
* NET 526 = no3_x1_4_sig
* NET 527 = no3_x1_3_sig
* NET 531 = no4_x1_5_sig
* NET 532 = no3_x1_sig
* NET 533 = na2_x1_4_sig
* NET 534 = stop
* NET 535 = no3_x1_2_sig
* NET 537 = na2_x1_3_sig
* NET 544 = not_aux47
* NET 552 = cuh_2_ins.sff_m
* NET 553 = cuh_2_ins.y
* NET 554 = cuh_2_ins.sff_s
* NET 556 = cuh_2_ins.u
* NET 557 = cuh_2_ins.ckr
* NET 558 = cuh_2_ins.nckr
* NET 560 = rtlalc_9[2]
* NET 561 = rtlalc_9[1]
* NET 563 = na2_x1_24_sig
* NET 564 = na3_x1_25_sig
* NET 565 = not_aux25
* NET 566 = aux139
* NET 567 = na3_x1_24_sig
* NET 569 = no2_x1_35_sig
* NET 572 = no3_x1_14_sig
* NET 573 = no2_x1_34_sig
* NET 575 = oa2a22_x2_3_sig
* NET 576 = not_rtlalc_9[2]
* NET 579 = aux24
* NET 581 = a2_x2_7_sig
* NET 583 = not_cdh[2]
* NET 584 = not_cdh[1]
* NET 588 = mbk_buf_not_aux17
* NET 589 = no4_x1_6_sig
* NET 590 = no2_x1_12_sig
* NET 591 = na4_x1_6_sig
* NET 592 = na2_x1_6_sig
* NET 595 = cdh_3_ins.sff_s
* NET 596 = nao22_x1_2_sig
* NET 597 = cdh_3_ins.y
* NET 600 = cdh_3_ins.sff_m
* NET 601 = cdh_3_ins.u
* NET 602 = cdh_3_ins.nckr
* NET 603 = cdh_3_ins.ckr
* NET 604 = cdm[3]
* NET 606 = no3_x1_5_sig
* NET 608 = o4_x2_2_sig
* NET 615 = aux48
* NET 616 = na3_x1_10_sig
* NET 617 = na3_x1_9_sig
* NET 618 = not_aux56
* NET 619 = not_aux49
* NET 622 = o2_x2_6_sig
* NET 623 = on12_x1_3_sig
* NET 647 = uh[2]
* NET 652 = rtlalc_9_0_ins.sff_m
* NET 653 = rtlalc_9_0_ins.sff_s
* NET 655 = rtlalc_9_0_ins.y
* NET 656 = rtlalc_9_0_ins.u
* NET 658 = rtlalc_9_0_ins.ckr
* NET 661 = rtlalc_9[0]
* NET 662 = rtlalc_9_0_ins.nckr
* NET 664 = no2_x1_33_sig
* NET 665 = no3_x1_12_sig
* NET 666 = rtlalc_9_3_ins.y
* NET 667 = rtlalc_9_3_ins.sff_s
* NET 669 = rtlalc_9_3_ins.u
* NET 671 = rtlalc_9_3_ins.sff_m
* NET 673 = rtlalc_9[3]
* NET 674 = rtlalc_9_3_ins.nckr
* NET 675 = rtlalc_9_3_ins.ckr
* NET 677 = no2_x1_36_sig
* NET 678 = no3_x1_15_sig
* NET 682 = a2_x2_11_sig
* NET 684 = cdh[3]
* NET 685 = not_cdh[3]
* NET 687 = o2_x2_3_sig
* NET 688 = an12_x1_4_sig
* NET 690 = no2_x1_9_sig
* NET 691 = mbk_buf_aux21
* NET 695 = not_aux10
* NET 697 = a4_x2_3_sig
* NET 701 = a3_x2_4_sig
* NET 703 = aux21
* NET 707 = not_aux43
* NET 710 = cdm[0]
* NET 711 = o2_x2_5_sig
* NET 716 = not_aux54
* NET 719 = na2_x1_8_sig
* NET 720 = no2_x1_14_sig
* NET 726 = na3_x1_7_sig
* NET 727 = o2_x2_4_sig
* NET 728 = na3_x1_8_sig
* NET 732 = cuh_1_ins.y
* NET 734 = cuh_1_ins.sff_m
* NET 735 = cuh_1_ins.sff_s
* NET 738 = na3_x1_6_sig
* NET 740 = cuh_1_ins.u
* NET 741 = cuh_1_ins.ckr
* NET 742 = cuh_1_ins.nckr
* NET 751 = na2_x1_28_sig
* NET 753 = na2_x1_29_sig
* NET 755 = na2_x1_27_sig
* NET 757 = mbk_buf_not_aux19
* NET 759 = no2_x1_15_sig
* NET 761 = uh[1]
* NET 762 = rtlalc_10[2]
* NET 763 = rtlalc_10_2_ins.ckr
* NET 764 = rtlalc_10_2_ins.nckr
* NET 765 = rtlalc_10_2_ins.sff_m
* NET 767 = rtlalc_10_2_ins.y
* NET 769 = rtlalc_10_2_ins.sff_s
* NET 770 = rtlalc_10_2_ins.u
* NET 774 = o2_x2_14_sig
* NET 777 = no3_x1_13_sig
* NET 781 = a3_x2_14_sig
* NET 782 = rtlalc_10_1_ins.ckr
* NET 786 = rtlalc_10_1_ins.nckr
* NET 787 = rtlalc_10_1_ins.sff_m
* NET 788 = rtlalc_10_1_ins.sff_s
* NET 789 = rtlalc_10_1_ins.y
* NET 793 = rtlalc_10_1_ins.u
* NET 796 = o2_x2_13_sig
* NET 799 = a3_x2_13_sig
* NET 804 = not_cuh[1]
* NET 805 = o2_x2_7_sig
* NET 806 = no4_x1_7_sig
* NET 810 = no2_x1_16_sig
* NET 812 = cdm[1]
* NET 813 = not_cuh[0]
* NET 815 = no2_x1_8_sig
* NET 821 = inv_x2_3_sig
* NET 822 = o2_x2_sig
* NET 824 = no4_x1_4_sig
* NET 828 = cuh[2]
* NET 831 = uh[0]
* NET 834 = aux140
* NET 838 = na3_x1_27_sig
* NET 839 = na3_x1_26_sig
* NET 841 = rtlalc_10[0]
* NET 842 = rtlalc_10_0_ins.y
* NET 843 = rtlalc_10_0_ins.sff_s
* NET 845 = na2_x1_25_sig
* NET 846 = rtlalc_10_0_ins.u
* NET 848 = rtlalc_10_0_ins.sff_m
* NET 850 = rtlalc_10_0_ins.ckr
* NET 853 = rtlalc_10_0_ins.nckr
* NET 854 = not_cdm[3]
* NET 856 = na2_x1_37_sig
* NET 857 = no3_x1_16_sig
* NET 860 = rtlalc_10_3_ins.y
* NET 862 = rtlalc_10_3_ins.sff_m
* NET 863 = rtlalc_10_3_ins.sff_s
* NET 864 = rtlalc_10_3_ins.u
* NET 866 = rtlalc_10_3_ins.ckr
* NET 867 = not_aux138
* NET 869 = rtlalc_10_3_ins.nckr
* NET 870 = na2_x1_31_sig
* NET 872 = na3_x1_28_sig
* NET 874 = na2_x1_30_sig
* NET 878 = a3_x2_5_sig
* NET 879 = aux63
* NET 886 = a4_x2_2_sig
* NET 889 = aux57
* NET 891 = not_cdm[0]
* NET 892 = cuh[1]
* NET 894 = not_aux14
* NET 897 = na2_x1_9_sig
* NET 898 = na3_x1_11_sig
* NET 903 = cuh_3_ins.y
* NET 904 = cuh_3_ins.sff_s
* NET 906 = na4_x1_8_sig
* NET 907 = cuh_3_ins.u
* NET 908 = cuh_3_ins.ckr
* NET 909 = cuh_3_ins.sff_m
* NET 911 = cuh_3_ins.nckr
* NET 912 = oa22_x2_sig
* NET 914 = nxr2_x1_3_sig
* NET 915 = nao22_x1_3_sig
* NET 918 = cuh[3]
* NET 931 = rtlalc_10[1]
* NET 957 = dm[3]
* NET 962 = rtlalc_11[3]
* NET 964 = rtlalc_11_3_ins.sff_s
* NET 967 = rtlalc_11_3_ins.y
* NET 969 = rtlalc_11_3_ins.sff_m
* NET 970 = rtlalc_11_3_ins.u
* NET 971 = rtlalc_11_3_ins.nckr
* NET 972 = rtlalc_11_3_ins.ckr
* NET 974 = na3_x1_32_sig
* NET 975 = na2_x1_35_sig
* NET 977 = aux141
* NET 978 = na3_x1_31_sig
* NET 981 = o3_x2_8_sig
* NET 982 = an12_x1_5_sig
* NET 986 = na2_x1_36_sig
* NET 988 = rtlalc_11_2_ins.sff_s
* NET 990 = rtlalc_11_2_ins.y
* NET 991 = rtlalc_11_2_ins.u
* NET 992 = rtlalc_11_2_ins.sff_m
* NET 996 = rtlalc_11_2_ins.nckr
* NET 997 = rtlalc_11_2_ins.ckr
* NET 999 = na2_x1_33_sig
* NET 1000 = na3_x1_30_sig
* NET 1003 = na2_x1_34_sig
* NET 1006 = a2_x2_4_sig
* NET 1008 = a3_x2_6_sig
* NET 1012 = a2_x2_6_sig
* NET 1013 = a2_x2_5_sig
* NET 1015 = cum[3]
* NET 1016 = not_cum[3]
* NET 1020 = na3_x1_4_sig
* NET 1023 = na4_x1_3_sig
* NET 1026 = a2_x2_3_sig
* NET 1027 = na3_x1_3_sig
* NET 1029 = not_cuh[2]
* NET 1030 = na2_x1_2_sig
* NET 1031 = not_aux21
* NET 1033 = a3_x2_3_sig
* NET 1034 = not_cdm[1]
* NET 1035 = cdm[2]
* NET 1036 = not_aux149
* NET 1040 = rtlalc_11_1_ins.sff_s
* NET 1041 = rtlalc_11_1_ins.y
* NET 1042 = rtlalc_11_1_ins.u
* NET 1043 = rtlalc_11_1_ins.sff_m
* NET 1046 = rtlalc_11_1_ins.ckr
* NET 1047 = rtlalc_11_1_ins.nckr
* NET 1049 = a3_x2_16_sig
* NET 1051 = o2_x2_16_sig
* NET 1052 = o3_x2_12_sig
* NET 1056 = dm[2]
* NET 1059 = na3_x1_29_sig
* NET 1064 = na3_x1_37_sig
* NET 1065 = na3_x1_36_sig
* NET 1067 = aux144
* NET 1068 = not_cum[2]
* NET 1069 = na2_x1_42_sig
* NET 1072 = rtlalc_10[3]
* NET 1073 = o3_x2_10_sig
* NET 1074 = no2_x1_37_sig
* NET 1075 = o2_x2_17_sig
* NET 1079 = mdh_3_ins.y
* NET 1080 = mdh_3_ins.sff_s
* NET 1081 = mdh_3_ins.u
* NET 1084 = mdh_3_ins.sff_m
* NET 1085 = mdh_3_ins.ckr
* NET 1086 = mdh_3_ins.nckr
* NET 1087 = rtlalc_11[2]
* NET 1088 = o3_x2_13_sig
* NET 1089 = no2_x1_38_sig
* NET 1092 = cdh_0_ins.sff_s
* NET 1093 = cdh_0_ins.y
* NET 1095 = cdh_0_ins.sff_m
* NET 1097 = na3_x1_2_sig
* NET 1098 = cdh_0_ins.nckr
* NET 1099 = cdh_0_ins.u
* NET 1100 = cdh_0_ins.ckr
* NET 1101 = cdh[0]
* NET 1103 = o2_x2_2_sig
* NET 1104 = not_aux23
* NET 1105 = na4_x1_7_sig
* NET 1109 = ao22_x2_2_sig
* NET 1111 = ctrl
* NET 1148 = dm[1]
* NET 1149 = rtlalc_11[1]
* NET 1150 = not_maquina1
* NET 1151 = na2_x1_26_sig
* NET 1154 = na2_x1_40_sig
* NET 1155 = aux143
* NET 1156 = na3_x1_34_sig
* NET 1157 = na3_x1_35_sig
* NET 1159 = rtlalc_12_1_ins.sff_s
* NET 1160 = rtlalc_12_1_ins.y
* NET 1162 = rtlalc_12_1_ins.sff_m
* NET 1164 = na2_x1_39_sig
* NET 1165 = rtlalc_12_1_ins.nckr
* NET 1166 = rtlalc_12_1_ins.u
* NET 1167 = rtlalc_12_1_ins.ckr
* NET 1169 = rtlalc_12[2]
* NET 1170 = rtlalc_12_2_ins.y
* NET 1172 = rtlalc_12_2_ins.sff_s
* NET 1175 = na2_x1_41_sig
* NET 1176 = rtlalc_12_2_ins.u
* NET 1178 = rtlalc_12_2_ins.sff_m
* NET 1179 = rtlalc_12_2_ins.ckr
* NET 1181 = o2_x2_12_sig
* NET 1182 = rtlalc_12_2_ins.nckr
* NET 1184 = na2_x1_21_sig
* NET 1185 = na3_x1_21_sig
* NET 1187 = oa22_x2_7_sig
* NET 1188 = nao22_x1_8_sig
* NET 1193 = no3_x1_11_sig
* NET 1194 = not_muh[3]
* NET 1195 = not_mdh[3]
* NET 1197 = mdm_1_ins.y
* NET 1198 = mdm_1_ins.sff_s
* NET 1200 = mdm_1_ins.u
* NET 1202 = mdm_1_ins.sff_m
* NET 1203 = mdm_1_ins.ckr
* NET 1205 = mdm_1_ins.nckr
* NET 1207 = not_aux44
* NET 1208 = mbk_buf_not_aux47
* NET 1212 = a3_x2_7_sig
* NET 1213 = no3_x1_6_sig
* NET 1215 = no2_x1_13_sig
* NET 1216 = na2_x1_7_sig
* NET 1217 = not_aux38
* NET 1218 = cuh[0]
* NET 1221 = cuh_0_ins.y
* NET 1223 = cuh_0_ins.sff_m
* NET 1224 = cuh_0_ins.sff_s
* NET 1225 = na3_x1_5_sig
* NET 1227 = cuh_0_ins.nckr
* NET 1228 = cuh_0_ins.u
* NET 1229 = cuh_0_ins.ckr
* NET 1230 = dm[0]
* NET 1235 = rtlalc_11_0_ins.u
* NET 1236 = rtlalc_11_0_ins.ckr
* NET 1239 = rtlalc_11_0_ins.nckr
* NET 1240 = o2_x2_15_sig
* NET 1241 = na2_x1_32_sig
* NET 1244 = a3_x2_15_sig
* NET 1245 = rtlalc_11[0]
* NET 1247 = o3_x2_11_sig
* NET 1249 = an12_x1_6_sig
* NET 1252 = o3_x2_9_sig
* NET 1258 = rtlalc_12_3_ins.u
* NET 1262 = rtlalc_12_3_ins.ckr
* NET 1263 = rtlalc_12_3_ins.nckr
* NET 1264 = na2_x1_43_sig
* NET 1267 = a3_x2_17_sig
* NET 1268 = o2_x2_18_sig
* NET 1271 = o3_x2_14_sig
* NET 1274 = not_aux78
* NET 1281 = no2_x1_24_sig
* NET 1283 = na3_x1_19_sig
* NET 1287 = oa2a22_x2_2_sig
* NET 1288 = na2_x1_23_sig
* NET 1295 = no4_x1_8_sig
* NET 1298 = inv_x2_sig
* NET 1303 = mum_0_ins.u
* NET 1304 = mum_0_ins.ckr
* NET 1306 = nxr2_x1_sig
* NET 1308 = mum_0_ins.nckr
* NET 1313 = no2_x1_5_sig
* NET 1314 = maquina1_ins.u
* NET 1315 = maquina1_ins.ckr
* NET 1316 = maquina1_ins.nckr
* NET 1319 = rtlalc_11_0_ins.sff_s
* NET 1321 = rtlalc_11_0_ins.y
* NET 1322 = rtlalc_11_0_ins.sff_m
* NET 1334 = rtlalc_12_3_ins.sff_s
* NET 1335 = rtlalc_12_3_ins.y
* NET 1336 = rtlalc_12_3_ins.sff_m
* NET 1353 = a2_x2_8_sig
* NET 1354 = no3_x1_9_sig
* NET 1355 = a4_x2_5_sig
* NET 1361 = mum_0_ins.sff_s
* NET 1363 = mum_0_ins.y
* NET 1364 = mum_0_ins.sff_m
* NET 1367 = maquina1_ins.sff_s
* NET 1369 = maquina1_ins.y
* NET 1370 = maquina1_ins.sff_m
* NET 1374 = rtlalc_12_0_ins.sff_s
* NET 1375 = rtlalc_12_0_ins.y
* NET 1376 = rtlalc_12_0_ins.u
* NET 1378 = rtlalc_12_0_ins.sff_m
* NET 1380 = rtlalc_12_0_ins.ckr
* NET 1381 = rtlalc_12_0_ins.nckr
* NET 1382 = na2_x1_38_sig
* NET 1384 = na3_x1_33_sig
* NET 1385 = maquina1
* NET 1387 = nao22_x1_12_sig
* NET 1388 = aux142
* NET 1390 = on12_x1_5_sig
* NET 1391 = rtlalc_12[3]
* NET 1394 = um[3]
* NET 1395 = no3_x1_10_sig
* NET 1399 = mdh[3]
* NET 1405 = nao22_x1_7_sig
* NET 1406 = na3_x1_20_sig
* NET 1407 = na3_x1_sig
* NET 1408 = not_aux104
* NET 1410 = a3_x2_2_sig
* NET 1411 = not_mdh[2]
* NET 1416 = no4_x1_2_sig
* NET 1417 = mdh[2]
* NET 1419 = mdh_2_ins.y
* NET 1420 = mdh_2_ins.sff_s
* NET 1421 = oa22_x2_6_sig
* NET 1422 = mdh_2_ins.ckr
* NET 1423 = mdh_2_ins.u
* NET 1425 = mdh_2_ins.sff_m
* NET 1427 = mdh_2_ins.nckr
* NET 1432 = no2_x1_31_sig
* NET 1433 = not_mdm[2]
* NET 1436 = not_aux133
* NET 1441 = not_aux107
* NET 1443 = nao2o22_x1_3_sig
* NET 1444 = no4_x1_9_sig
* NET 1448 = not_aux134
* NET 1450 = mdm_2_ins.sff_s
* NET 1451 = mdm_2_ins.y
* NET 1453 = mdm_2_ins.sff_m
* NET 1454 = oa22_x2_9_sig
* NET 1455 = mdm_2_ins.u
* NET 1457 = mdm_2_ins.nckr
* NET 1458 = mdm_2_ins.ckr
* NET 1469 = inv_x2_6_sig
* NET 1470 = no2_x1_26_sig
* NET 1480 = na2_x1_20_sig
* NET 1482 = no2_x1_sig
* NET 1507 = um[2]
* NET 1508 = muh_1_ins.sff_s
* NET 1509 = muh_1_ins.sff_m
* NET 1510 = muh_1_ins.y
* NET 1511 = muh_1_ins.ckr
* NET 1512 = muh_1_ins.u
* NET 1513 = oa2ao222_x2_3_sig
* NET 1517 = muh_1_ins.nckr
* NET 1522 = not_aux118
* NET 1524 = not_aux96
* NET 1527 = no4_x1_3_sig
* NET 1533 = no2_x1_2_sig
* NET 1534 = not_mdh[0]
* NET 1535 = na2_x1_sig
* NET 1540 = not_aux73
* NET 1548 = not_aux88
* NET 1551 = not_mdm[3]
* NET 1553 = not_aux148
* NET 1557 = no2_x1_32_sig
* NET 1559 = noa22_x1_3_sig
* NET 1561 = mdm[2]
* NET 1563 = not_aux116
* NET 1567 = not_aux132
* NET 1570 = mdm_3_ins.sff_s
* NET 1571 = mdm_3_ins.sff_m
* NET 1573 = mdm_3_ins.u
* NET 1574 = nao2o22_x1_4_sig
* NET 1575 = mdm_3_ins.y
* NET 1576 = mdm_3_ins.ckr
* NET 1579 = mdm_3_ins.nckr
* NET 1584 = mum_2_ins.sff_s
* NET 1586 = mum_2_ins.sff_m
* NET 1587 = mum_2_ins.ckr
* NET 1589 = mum_2_ins.y
* NET 1591 = mum_2_ins.u
* NET 1592 = nao22_x1_10_sig
* NET 1593 = mum_2_ins.nckr
* NET 1595 = rtlalc_12[0]
* NET 1596 = rtlalc_12[1]
* NET 1601 = nxr2_x1_4_sig
* NET 1604 = no2_x1_27_sig
* NET 1610 = o4_x2_sig
* NET 1611 = not_aux119
* NET 1613 = not_muh[1]
* NET 1615 = on12_x1_sig
* NET 1616 = a3_x2_sig
* NET 1619 = not_aux81
* NET 1620 = mdm[3]
* NET 1623 = na2_x1_19_sig
* NET 1624 = not_aux92
* NET 1626 = not_aux85
* NET 1627 = no4_x1_sig
* NET 1629 = inv_x2_7_sig
* NET 1630 = not_aux113
* NET 1634 = na3_x1_22_sig
* NET 1635 = o2_x2_10_sig
* NET 1639 = xr2_x1_3_sig
* NET 1641 = na3_x1_23_sig
* NET 1642 = mdm[0]
* NET 1644 = mdm_0_ins.sff_s
* NET 1645 = mdm_0_ins.y
* NET 1646 = mdm_0_ins.sff_m
* NET 1648 = nao22_x1_9_sig
* NET 1649 = mdm_0_ins.u
* NET 1651 = mdm_0_ins.ckr
* NET 1652 = mdm_0_ins.nckr
* NET 1653 = um[1]
* NET 1685 = muh_0_ins.sff_s
* NET 1687 = muh_0_ins.y
* NET 1688 = muh_0_ins.u
* NET 1690 = muh_0_ins.sff_m
* NET 1693 = muh_0_ins.ckr
* NET 1694 = muh_0_ins.nckr
* NET 1696 = a3_x2_10_sig
* NET 1700 = oa22_x2_8_sig
* NET 1702 = not_aux127
* NET 1703 = mdm[1]
* NET 1712 = a4_x2_6_sig
* NET 1713 = a3_x2_11_sig
* NET 1714 = no2_x1_30_sig
* NET 1715 = not_aux129
* NET 1719 = muh[3]
* NET 1722 = muh_3_ins.y
* NET 1724 = muh_3_ins.sff_m
* NET 1725 = muh_3_ins.sff_s
* NET 1728 = oa2ao222_x2_5_sig
* NET 1729 = muh_3_ins.u
* NET 1730 = muh_3_ins.ckr
* NET 1732 = not_aux111
* NET 1733 = nao2o22_x1_2_sig
* NET 1734 = muh_3_ins.nckr
* NET 1736 = not_mdh[1]
* NET 1737 = aux82
* NET 1740 = mdh_0_ins.y
* NET 1742 = mdh_0_ins.sff_s
* NET 1743 = mdh_0_ins.ckr
* NET 1744 = mdh_0_ins.u
* NET 1745 = mdh_0_ins.sff_m
* NET 1748 = mdh_0_ins.nckr
* NET 1749 = oa2ao222_x2_sig
* NET 1750 = an12_x1_3_sig
* NET 1751 = inv_x2_5_sig
* NET 1752 = mdh[0]
* NET 1756 = no2_x1_23_sig
* NET 1757 = noa22_x1_2_sig
* NET 1758 = a3_x2_9_sig
* NET 1763 = mdh[1]
* NET 1765 = mdh_1_ins.y
* NET 1767 = mdh_1_ins.sff_m
* NET 1768 = mdh_1_ins.sff_s
* NET 1770 = oa2ao222_x2_2_sig
* NET 1772 = mdh_1_ins.u
* NET 1773 = mdh_1_ins.ckr
* NET 1774 = mdh_1_ins.nckr
* NET 1778 = o3_x2_7_sig
* NET 1779 = not_mum[3]
* NET 1783 = not_rst
* NET 1787 = a3_x2_12_sig
* NET 1788 = nao22_x1_11_sig
* NET 1792 = mum[2]
* NET 1797 = xr2_x1_sig
* NET 1799 = not_aux137
* NET 1803 = vss
* NET 1804 = um[0]
* NET 1806 = muh[1]
* NET 1809 = xr2_x1_2_sig
* NET 1812 = a2_x2_9_sig
* NET 1813 = a2_x2_10_sig
* NET 1814 = no2_x1_28_sig
* NET 1818 = na2_x1_22_sig
* NET 1820 = no2_x1_29_sig
* NET 1822 = muh_2_ins.sff_s
* NET 1823 = muh_2_ins.y
* NET 1824 = oa2ao222_x2_4_sig
* NET 1826 = muh_2_ins.u
* NET 1828 = muh_2_ins.sff_m
* NET 1829 = muh_2_ins.nckr
* NET 1830 = muh_2_ins.ckr
* NET 1831 = not_muh[0]
* NET 1832 = o2_x2_9_sig
* NET 1833 = not_aux117
* NET 1836 = not_muh[2]
* NET 1837 = muh[2]
* NET 1840 = not_mdm[1]
* NET 1842 = muh[0]
* NET 1843 = not_mum[1]
* NET 1845 = rst
* NET 1846 = not_aux72
* NET 1849 = no2_x1_25_sig
* NET 1850 = not_mum[2]
* NET 1853 = not_aux105
* NET 1855 = not_aux131
* NET 1856 = not_aux130
* NET 1857 = o2_x2_11_sig
* NET 1858 = not_aux135
* NET 1861 = mum[1]
* NET 1863 = mum_1_ins.sff_s
* NET 1864 = mum_1_ins.y
* NET 1867 = mum_1_ins.sff_m
* NET 1868 = not_mum[0]
* NET 1869 = nao2o22_x1_5_sig
* NET 1870 = mum_1_ins.u
* NET 1871 = mum_1_ins.nckr
* NET 1872 = mum_1_ins.ckr
* NET 1873 = mum[0]
* NET 1875 = mum[3]
* NET 1876 = mum_3_ins.sff_s
* NET 1877 = mum_3_ins.y
* NET 1879 = mum_3_ins.sff_m
* NET 1880 = oa22_x2_10_sig
* NET 1881 = clk
* NET 1883 = mum_3_ins.u
* NET 1884 = mum_3_ins.ckr
* NET 1885 = vdd
* NET 1886 = mum_3_ins.nckr
Mtr_03768 1862 1861 1885 1885 tp L=1U W=10U AS=20P AD=20P PS=24U PD=24U 
Mtr_03767 1863 1872 1862 1885 tp L=1U W=10U AS=20P AD=20P PS=24U PD=24U 
Mtr_03766 1864 1871 1863 1885 tp L=1U W=10U AS=20P AD=20P PS=24U PD=24U 
Mtr_03765 1867 1871 1866 1885 tp L=1U W=10U AS=20P AD=20P PS=24U PD=24U 
Mtr_03764 1866 1864 1885 1885 tp L=1U W=10U AS=20P AD=20P PS=24U PD=24U 
Mtr_03763 1865 1872 1867 1885 tp L=1U W=10U AS=20P AD=20P PS=24U PD=24U 
Mtr_03762 1871 1881 1885 1885 tp L=1U W=10U AS=20P AD=20P PS=24U PD=24U 
Mtr_03761 1885 1871 1872 1885 tp L=1U W=10U AS=20P AD=20P PS=24U PD=24U 
Mtr_03760 1870 1869 1885 1885 tp L=1U W=10U AS=20P AD=20P PS=24U PD=24U 
Mtr_03759 1885 1870 1865 1885 tp L=1U W=10U AS=20P AD=20P PS=24U PD=24U 
Mtr_03758 1885 1863 1861 1885 tp L=1U W=20U AS=40P AD=40P PS=44U PD=44U 
Mtr_03757 1861 1863 1885 1885 tp L=1U W=20U AS=40P AD=40P PS=44U PD=44U 
Mtr_03756 1864 1867 1885 1885 tp L=1U W=10U AS=20P AD=20P PS=24U PD=24U 
Mtr_03755 1874 1875 1885 1885 tp L=1U W=10U AS=20P AD=20P PS=24U PD=24U 
Mtr_03754 1876 1884 1874 1885 tp L=1U W=10U AS=20P AD=20P PS=24U PD=24U 
Mtr_03753 1877 1886 1876 1885 tp L=1U W=10U AS=20P AD=20P PS=24U PD=24U 
Mtr_03752 1879 1886 1878 1885 tp L=1U W=10U AS=20P AD=20P PS=24U PD=24U 
Mtr_03751 1878 1877 1885 1885 tp L=1U W=10U AS=20P AD=20P PS=24U PD=24U 
Mtr_03750 1882 1884 1879 1885 tp L=1U W=10U AS=20P AD=20P PS=24U PD=24U 
Mtr_03749 1886 1881 1885 1885 tp L=1U W=10U AS=20P AD=20P PS=24U PD=24U 
Mtr_03748 1885 1886 1884 1885 tp L=1U W=10U AS=20P AD=20P PS=24U PD=24U 
Mtr_03747 1883 1880 1885 1885 tp L=1U W=10U AS=20P AD=20P PS=24U PD=24U 
Mtr_03746 1885 1883 1882 1885 tp L=1U W=10U AS=20P AD=20P PS=24U PD=24U 
Mtr_03745 1885 1876 1875 1885 tp L=1U W=20U AS=40P AD=40P PS=44U PD=44U 
Mtr_03744 1875 1876 1885 1885 tp L=1U W=20U AS=40P AD=40P PS=44U PD=44U 
Mtr_03743 1877 1879 1885 1885 tp L=1U W=10U AS=20P AD=20P PS=24U PD=24U 
Mtr_03742 1855 1856 1885 1885 tp L=1U W=10U AS=20P AD=20P PS=24U PD=24U 
Mtr_03741 1885 1873 1855 1885 tp L=1U W=10U AS=20P AD=20P PS=24U PD=24U 
Mtr_03740 1844 1843 1847 1885 tp L=1U W=15U AS=30P AD=30P PS=34U PD=34U 
Mtr_03739 1885 1845 1844 1885 tp L=1U W=15U AS=30P AD=30P PS=34U PD=34U 
Mtr_03738 1858 1847 1885 1885 tp L=1U W=20U AS=40P AD=40P PS=44U PD=44U 
Mtr_03737 1852 1856 1854 1885 tp L=1U W=15U AS=30P AD=30P PS=34U PD=34U 
Mtr_03736 1885 1853 1852 1885 tp L=1U W=15U AS=30P AD=30P PS=34U PD=34U 
Mtr_03735 1857 1854 1885 1885 tp L=1U W=20U AS=40P AD=40P PS=44U PD=44U 
Mtr_03734 1869 1868 1860 1885 tp L=1U W=20U AS=40P AD=40P PS=44U PD=44U 
Mtr_03733 1860 1857 1885 1885 tp L=1U W=20U AS=40P AD=40P PS=44U PD=44U 
Mtr_03732 1859 1858 1869 1885 tp L=1U W=20U AS=40P AD=40P PS=44U PD=44U 
Mtr_03731 1885 1873 1859 1885 tp L=1U W=20U AS=40P AD=40P PS=44U PD=44U 
Mtr_03730 1856 1851 1885 1885 tp L=1U W=20U AS=40P AD=40P PS=44U PD=44U 
Mtr_03729 1885 1850 1851 1885 tp L=1U W=10U AS=20P AD=20P PS=24U PD=24U 
Mtr_03728 1851 1875 1885 1885 tp L=1U W=10U AS=20P AD=20P PS=24U PD=24U 
Mtr_03727 1868 1873 1885 1885 tp L=1U W=15U AS=30P AD=30P PS=34U PD=34U 
Mtr_03726 1848 1846 1849 1885 tp L=1U W=20U AS=40P AD=40P PS=44U PD=44U 
Mtr_03725 1885 1845 1848 1885 tp L=1U W=20U AS=40P AD=40P PS=44U PD=44U 
Mtr_03724 1838 1861 1839 1885 tp L=1U W=15U AS=30P AD=30P PS=34U PD=34U 
Mtr_03723 1885 1845 1838 1885 tp L=1U W=15U AS=30P AD=30P PS=34U PD=34U 
Mtr_03722 1853 1839 1885 1885 tp L=1U W=20U AS=40P AD=40P PS=44U PD=44U 
Mtr_03721 1834 1833 1835 1885 tp L=1U W=15U AS=30P AD=30P PS=34U PD=34U 
Mtr_03720 1885 1845 1834 1885 tp L=1U W=15U AS=30P AD=30P PS=34U PD=34U 
Mtr_03719 1832 1835 1885 1885 tp L=1U W=20U AS=40P AD=40P PS=44U PD=44U 
Mtr_03718 1836 1837 1885 1885 tp L=1U W=15U AS=30P AD=30P PS=34U PD=34U 
Mtr_03717 1843 1861 1885 1885 tp L=1U W=15U AS=30P AD=30P PS=34U PD=34U 
Mtr_03716 1805 1837 1885 1885 tp L=1U W=10U AS=20P AD=20P PS=24U PD=24U 
Mtr_03715 1885 1806 1808 1885 tp L=1U W=10U AS=20P AD=20P PS=24U PD=24U 
Mtr_03714 1809 1805 1807 1885 tp L=1U W=20U AS=40P AD=40P PS=44U PD=44U 
Mtr_03713 1807 1806 1885 1885 tp L=1U W=20U AS=40P AD=40P PS=44U PD=44U 
Mtr_03712 1807 1808 1809 1885 tp L=1U W=20U AS=40P AD=40P PS=44U PD=44U 
Mtr_03711 1885 1837 1807 1885 tp L=1U W=20U AS=40P AD=40P PS=44U PD=44U 
Mtr_03710 1818 1833 1885 1885 tp L=1U W=10U AS=20P AD=20P PS=24U PD=24U 
Mtr_03709 1885 1840 1818 1885 tp L=1U W=10U AS=20P AD=20P PS=24U PD=24U 
Mtr_03708 1831 1842 1885 1885 tp L=1U W=15U AS=30P AD=30P PS=34U PD=34U 
Mtr_03707 1846 1841 1885 1885 tp L=1U W=20U AS=40P AD=40P PS=44U PD=44U 
Mtr_03706 1885 1840 1841 1885 tp L=1U W=10U AS=20P AD=20P PS=24U PD=24U 
Mtr_03705 1841 1842 1885 1885 tp L=1U W=10U AS=20P AD=20P PS=24U PD=24U 
Mtr_03704 1813 1810 1885 1885 tp L=1U W=20U AS=40P AD=40P PS=44U PD=44U 
Mtr_03703 1885 1842 1810 1885 tp L=1U W=10U AS=20P AD=20P PS=24U PD=24U 
Mtr_03702 1810 1809 1885 1885 tp L=1U W=10U AS=20P AD=20P PS=24U PD=24U 
Mtr_03701 1821 1837 1885 1885 tp L=1U W=10U AS=20P AD=20P PS=24U PD=24U 
Mtr_03700 1822 1830 1821 1885 tp L=1U W=10U AS=20P AD=20P PS=24U PD=24U 
Mtr_03699 1823 1829 1822 1885 tp L=1U W=10U AS=20P AD=20P PS=24U PD=24U 
Mtr_03698 1828 1829 1827 1885 tp L=1U W=10U AS=20P AD=20P PS=24U PD=24U 
Mtr_03697 1827 1823 1885 1885 tp L=1U W=10U AS=20P AD=20P PS=24U PD=24U 
Mtr_03696 1825 1830 1828 1885 tp L=1U W=10U AS=20P AD=20P PS=24U PD=24U 
Mtr_03695 1829 1881 1885 1885 tp L=1U W=10U AS=20P AD=20P PS=24U PD=24U 
Mtr_03694 1885 1829 1830 1885 tp L=1U W=10U AS=20P AD=20P PS=24U PD=24U 
Mtr_03693 1826 1824 1885 1885 tp L=1U W=10U AS=20P AD=20P PS=24U PD=24U 
Mtr_03692 1885 1826 1825 1885 tp L=1U W=10U AS=20P AD=20P PS=24U PD=24U 
Mtr_03691 1885 1822 1837 1885 tp L=1U W=20U AS=40P AD=40P PS=44U PD=44U 
Mtr_03690 1837 1822 1885 1885 tp L=1U W=20U AS=40P AD=40P PS=44U PD=44U 
Mtr_03689 1823 1828 1885 1885 tp L=1U W=10U AS=20P AD=20P PS=24U PD=24U 
Mtr_03688 1819 1836 1820 1885 tp L=1U W=20U AS=40P AD=40P PS=44U PD=44U 
Mtr_03687 1885 1845 1819 1885 tp L=1U W=20U AS=40P AD=40P PS=44U PD=44U 
Mtr_03686 1824 1815 1885 1885 tp L=1U W=20U AS=40P AD=40P PS=44U PD=44U 
Mtr_03685 1817 1812 1816 1885 tp L=1U W=20U AS=40P AD=40P PS=44U PD=44U 
Mtr_03684 1817 1820 1885 1885 tp L=1U W=14.5U AS=29P AD=29P PS=33U PD=33U 
Mtr_03683 1885 1818 1817 1885 tp L=1U W=14.5U AS=29P AD=29P PS=33U PD=33U 
Mtr_03682 1816 1813 1815 1885 tp L=1U W=20U AS=40P AD=40P PS=44U PD=44U 
Mtr_03681 1815 1814 1817 1885 tp L=1U W=20U AS=40P AD=40P PS=44U PD=44U 
Mtr_03680 1812 1811 1885 1885 tp L=1U W=20U AS=40P AD=40P PS=44U PD=44U 
Mtr_03679 1885 1831 1811 1885 tp L=1U W=10U AS=20P AD=20P PS=24U PD=24U 
Mtr_03678 1811 1837 1885 1885 tp L=1U W=10U AS=20P AD=20P PS=24U PD=24U 
Mtr_03677 1850 1792 1885 1885 tp L=1U W=15U AS=30P AD=30P PS=34U PD=34U 
Mtr_03676 1885 1797 1799 1885 tp L=1U W=10U AS=20P AD=20P PS=24U PD=24U 
Mtr_03675 1799 1798 1885 1885 tp L=1U W=10U AS=20P AD=20P PS=24U PD=24U 
Mtr_03674 1885 1845 1798 1885 tp L=1U W=10U AS=20P AD=20P PS=24U PD=24U 
Mtr_03673 1794 1792 1885 1885 tp L=1U W=10U AS=20P AD=20P PS=24U PD=24U 
Mtr_03672 1885 1861 1801 1885 tp L=1U W=10U AS=20P AD=20P PS=24U PD=24U 
Mtr_03671 1797 1794 1683 1885 tp L=1U W=20U AS=40P AD=40P PS=44U PD=44U 
Mtr_03670 1683 1861 1885 1885 tp L=1U W=20U AS=40P AD=40P PS=44U PD=44U 
Mtr_03669 1683 1801 1797 1885 tp L=1U W=20U AS=40P AD=40P PS=44U PD=44U 
Mtr_03668 1885 1792 1683 1885 tp L=1U W=20U AS=40P AD=40P PS=44U PD=44U 
Mtr_03667 1885 1790 1880 1885 tp L=1U W=20U AS=40P AD=40P PS=44U PD=44U 
Mtr_03666 1682 1787 1885 1885 tp L=1U W=10U AS=20P AD=20P PS=24U PD=24U 
Mtr_03665 1682 1788 1790 1885 tp L=1U W=10U AS=20P AD=20P PS=24U PD=24U 
Mtr_03664 1790 1873 1682 1885 tp L=1U W=10U AS=20P AD=20P PS=24U PD=24U 
Mtr_03663 1673 1846 1756 1885 tp L=1U W=20U AS=40P AD=40P PS=44U PD=44U 
Mtr_03662 1885 1845 1673 1885 tp L=1U W=20U AS=40P AD=40P PS=44U PD=44U 
Mtr_03661 1885 1778 1788 1885 tp L=1U W=20U AS=40P AD=40P PS=44U PD=44U 
Mtr_03660 1681 1779 1885 1885 tp L=1U W=20U AS=40P AD=40P PS=44U PD=44U 
Mtr_03659 1788 1799 1681 1885 tp L=1U W=20U AS=40P AD=40P PS=44U PD=44U 
Mtr_03658 1779 1875 1885 1885 tp L=1U W=15U AS=30P AD=30P PS=34U PD=34U 
Mtr_03657 1885 1868 1786 1885 tp L=1U W=10U AS=20P AD=20P PS=24U PD=24U 
Mtr_03656 1787 1786 1885 1885 tp L=1U W=20U AS=40P AD=40P PS=44U PD=44U 
Mtr_03655 1885 1783 1786 1885 tp L=1U W=10U AS=20P AD=20P PS=24U PD=24U 
Mtr_03654 1786 1875 1885 1885 tp L=1U W=10U AS=20P AD=20P PS=24U PD=24U 
Mtr_03653 1885 1858 1680 1885 tp L=1U W=15U AS=30P AD=30P PS=34U PD=34U 
Mtr_03652 1680 1875 1679 1885 tp L=1U W=15U AS=30P AD=30P PS=34U PD=34U 
Mtr_03651 1679 1850 1776 1885 tp L=1U W=15U AS=30P AD=30P PS=34U PD=34U 
Mtr_03650 1778 1776 1885 1885 tp L=1U W=20U AS=40P AD=40P PS=44U PD=44U 
Mtr_03649 1736 1763 1885 1885 tp L=1U W=15U AS=30P AD=30P PS=34U PD=34U 
Mtr_03648 1770 1760 1885 1885 tp L=1U W=20U AS=40P AD=40P PS=44U PD=44U 
Mtr_03647 1675 1758 1674 1885 tp L=1U W=20U AS=40P AD=40P PS=44U PD=44U 
Mtr_03646 1675 1849 1885 1885 tp L=1U W=14.5U AS=29P AD=29P PS=33U PD=33U 
Mtr_03645 1885 1763 1675 1885 tp L=1U W=14.5U AS=29P AD=29P PS=33U PD=33U 
Mtr_03644 1674 1757 1760 1885 tp L=1U W=20U AS=40P AD=40P PS=44U PD=44U 
Mtr_03643 1760 1846 1675 1885 tp L=1U W=20U AS=40P AD=40P PS=44U PD=44U 